Version 4.1
SHEET 1 880 680
WIRE 208 128 -64 128
WIRE 352 128 272 128
WIRE 480 128 352 128
WIRE 608 128 480 128
WIRE -64 176 -64 128
WIRE 480 224 480 128
WIRE 208 240 48 240
WIRE 352 240 352 128
WIRE 352 240 272 240
WIRE -64 368 -64 256
WIRE 256 368 -64 368
WIRE 480 368 480 304
WIRE 480 368 256 368
WIRE 48 432 48 240
WIRE 48 560 48 512
WIRE 256 560 256 368
WIRE 256 560 48 560
WIRE 48 608 48 560
FLAG 48 608 0
FLAG 608 128 OUTPUT
IOPIN 608 128 Out
DATAFLAG 48 560 ""
SYMBOL diode 208 144 R270
WINDOW 0 32 32 VTop 2
WINDOW 3 0 32 VBottom 2
SYMATTR InstName D1
SYMATTR Value 1N5817
SYMATTR Description Diode
SYMATTR Type diode
SYMBOL diode 208 256 R270
WINDOW 0 32 32 VTop 2
WINDOW 3 0 32 VBottom 2
SYMATTR InstName D2
SYMATTR Value 1N5817
SYMATTR Description Diode
SYMATTR Type diode
SYMBOL voltage -64 160 R0
WINDOW 3 24 96 Invisible 2
WINDOW 123 0 0 Left 0
WINDOW 39 24 124 Left 2
SYMATTR InstName V1
SYMATTR Value PULSE(0 5 0 10n 10n 2.5m 5m)
SYMBOL res 464 208 R0
SYMATTR InstName R1
SYMATTR Value 200
SYMATTR SpiceLine tol=1 pwr=0.1
SYMBOL voltage 48 416 R0
WINDOW 3 24 96 Invisible 2
WINDOW 123 0 0 Left 0
WINDOW 39 0 0 Left 0
SYMATTR InstName V2
SYMATTR Value PULSE(0 5 1m 10n 10n 2.5m 5m)
TEXT 272 32 Center 4 ;PORTA OR COM DUAS ENTRADAS
TEXT -96 632 Left 2 !.tran 10m
TEXT 288 -64 Center 5 ;Unidade 03 Cap. 01 - LTSpice com Diodos
