*SPEF "ieee 1481-1999"
*DESIGN "sram"
*DATE "00:25:51 Saturday May 16, 2026"
*VENDOR "The OpenROAD Project"
*PROGRAM "OpenROAD"
*VERSION "dcf36133a369abc8f3c5e5738cd4d82e4903c0e0"
*DESIGN_FLOW "NAME_SCOPE LOCAL" "PIN_CAP NONE"
*DIVIDER /
*DELIMITER :
*BUS_DELIMITER []
*T_UNIT 1 NS
*C_UNIT 1 PF
*R_UNIT 1 OHM
*L_UNIT 1 HENRY

*NAME_MAP
*3 clk
*4 col_addr[0]
*5 col_addr[1]
*6 cs
*7 data_in
*8 data_out
*9 data_out_bar
*10 oe_n
*11 row_addr[0]
*12 row_addr[1]
*13 we_n
*14 _000_
*15 _001_
*16 _002_
*17 _003_
*18 _004_
*19 _005_
*20 _006_
*21 _007_
*22 _008_
*23 _009_
*24 _010_
*25 _011_
*26 _012_
*27 _013_
*28 _014_
*29 _015_
*30 _016_
*31 _017_
*32 _018_
*33 _019_
*34 _020_
*35 _021_
*36 _022_
*37 _023_
*38 _024_
*39 _025_
*40 _026_
*41 _027_
*42 _028_
*43 _029_
*44 _030_
*45 _031_
*46 _032_
*47 _033_
*48 _034_
*49 _035_
*50 _036_
*51 _037_
*52 _038_
*53 _039_
*54 _040_
*55 _041_
*56 _042_
*57 _043_
*58 _044_
*59 _045_
*60 _046_
*61 _047_
*62 clknet_0_clk
*63 clknet_2_0__leaf_clk
*64 clknet_2_1__leaf_clk
*65 clknet_2_2__leaf_clk
*66 clknet_2_3__leaf_clk
*67 memory\[0\]
*68 memory\[10\]
*69 memory\[11\]
*70 memory\[12\]
*71 memory\[13\]
*72 memory\[14\]
*73 memory\[15\]
*74 memory\[1\]
*75 memory\[2\]
*76 memory\[3\]
*77 memory\[4\]
*78 memory\[5\]
*79 memory\[6\]
*80 memory\[7\]
*81 memory\[8\]
*82 memory\[9\]
*83 net
*84 net1
*85 net10
*86 net11
*87 net12
*88 net13
*89 net14
*90 net15
*91 net16
*92 net17
*93 net18
*94 net19
*95 net2
*96 net20
*97 net21
*98 net22
*99 net23
*100 net24
*101 net25
*102 net26
*103 net27
*104 net28
*105 net29
*106 net3
*107 net30
*108 net31
*109 net32
*110 net33
*111 net34
*112 net35
*113 net36
*114 net37
*115 net38
*116 net39
*117 net4
*118 net40
*119 net41
*120 net42
*121 net43
*122 net44
*123 net45
*124 net46
*125 net5
*126 net6
*127 net7
*128 net8
*129 net9
*130 FILLER_0_0
*131 FILLER_0_117
*132 FILLER_0_14
*133 FILLER_0_21
*134 FILLER_0_28
*135 FILLER_0_35
*136 FILLER_0_42
*137 FILLER_0_49
*138 FILLER_0_51
*139 FILLER_0_56
*140 FILLER_0_63
*141 FILLER_0_7
*142 FILLER_0_70
*143 FILLER_0_77
*144 FILLER_0_84
*145 FILLER_0_88
*146 FILLER_10_109
*147 FILLER_10_116
*148 FILLER_10_12
*149 FILLER_10_19
*150 FILLER_10_4
*151 FILLER_10_51
*152 FILLER_10_58
*153 FILLER_10_60
*154 FILLER_10_65
*155 FILLER_10_72
*156 FILLER_10_76
*157 FILLER_10_98
*158 FILLER_11_0
*159 FILLER_11_2
*160 FILLER_11_53
*161 FILLER_11_67
*162 FILLER_11_71
*163 FILLER_11_82
*164 FILLER_11_89
*165 FILLER_12_0
*166 FILLER_12_14
*167 FILLER_12_16
*168 FILLER_12_21
*169 FILLER_12_7
*170 FILLER_12_85
*171 FILLER_13_108
*172 FILLER_13_11
*173 FILLER_13_115
*174 FILLER_13_117
*175 FILLER_13_39
*176 FILLER_13_4
*177 FILLER_13_71
*178 FILLER_14_0
*179 FILLER_14_101
*180 FILLER_14_108
*181 FILLER_14_115
*182 FILLER_14_117
*183 FILLER_14_14
*184 FILLER_14_21
*185 FILLER_14_28
*186 FILLER_14_32
*187 FILLER_14_46
*188 FILLER_14_60
*189 FILLER_14_67
*190 FILLER_14_7
*191 FILLER_14_74
*192 FILLER_14_81
*193 FILLER_14_85
*194 FILLER_14_90
*195 FILLER_1_0
*196 FILLER_1_108
*197 FILLER_1_115
*198 FILLER_1_117
*199 FILLER_1_14
*200 FILLER_1_21
*201 FILLER_1_61
*202 FILLER_1_7
*203 FILLER_1_92
*204 FILLER_2_0
*205 FILLER_2_14
*206 FILLER_2_21
*207 FILLER_2_28
*208 FILLER_2_34
*209 FILLER_2_45
*210 FILLER_2_7
*211 FILLER_2_77
*212 FILLER_2_88
*213 FILLER_3_0
*214 FILLER_3_15
*215 FILLER_3_22
*216 FILLER_3_55
*217 FILLER_3_62
*218 FILLER_3_7
*219 FILLER_3_73
*220 FILLER_3_77
*221 FILLER_3_89
*222 FILLER_4_0
*223 FILLER_4_117
*224 FILLER_4_33
*225 FILLER_4_4
*226 FILLER_4_68
*227 FILLER_4_75
*228 FILLER_5_11
*229 FILLER_5_18
*230 FILLER_5_30
*231 FILLER_5_4
*232 FILLER_5_54
*233 FILLER_5_56
*234 FILLER_5_6
*235 FILLER_5_78
*236 FILLER_5_88
*237 FILLER_5_90
*238 FILLER_6_0
*239 FILLER_6_110
*240 FILLER_6_48
*241 FILLER_6_52
*242 FILLER_6_59
*243 FILLER_6_70
*244 FILLER_6_77
*245 FILLER_6_79
*246 FILLER_6_99
*247 FILLER_7_106
*248 FILLER_7_113
*249 FILLER_7_117
*250 FILLER_7_16
*251 FILLER_7_23
*252 FILLER_7_4
*253 FILLER_7_40
*254 FILLER_7_49
*255 FILLER_7_58
*256 FILLER_7_6
*257 FILLER_7_60
*258 FILLER_7_86
*259 FILLER_7_90
*260 FILLER_8_109
*261 FILLER_8_11
*262 FILLER_8_34
*263 FILLER_8_4
*264 FILLER_8_49
*265 FILLER_8_58
*266 FILLER_8_6
*267 FILLER_8_65
*268 FILLER_8_77
*269 FILLER_8_98
*270 FILLER_9_0
*271 FILLER_9_38
*272 FILLER_9_62
*273 FILLER_9_66
*274 FILLER_9_89
*275 _064_
*276 _065_
*277 _066_
*278 _067_
*279 _068_
*280 _069_
*281 _070_
*282 _071_
*283 _072_
*284 _073_
*285 _074_
*286 _075_
*287 _076_
*288 _077_
*289 _078_
*290 _079_
*291 _080_
*292 _081_
*293 _082_
*294 _083_
*295 _084_
*296 _085_
*297 _086_
*298 _087_
*299 _088_
*300 _089_
*301 _090_
*302 _091_
*303 _092_
*304 _093_
*305 _094_
*306 _095_
*307 _096_
*308 _097_
*309 _098_
*310 _099_
*311 _100_
*312 _101_
*313 _102_
*314 _103_
*315 _104_
*316 _105_
*317 _106_
*318 _107_
*319 _108_
*320 _109_
*321 _110_
*322 _111_
*323 _112_
*324 _113_
*325 _114_
*326 _114__20
*327 _115_
*328 _115__19
*329 _116_
*330 _116__18
*331 _117_
*332 _117__17
*333 _118_
*334 _118__16
*335 _119_
*336 _119__31
*337 _120_
*338 _120__30
*339 _121_
*340 _121__29
*341 _122_
*342 _122__28
*343 _123_
*344 _123__27
*345 _124_
*346 _124__26
*347 _125_
*348 _125__25
*349 _126_
*350 _126__24
*351 _127_
*352 _127__23
*353 _128_
*354 _128__22
*355 _129_
*356 _129__21
*357 clkbuf_0_clk
*358 clkbuf_2_0__f_clk
*359 clkbuf_2_1__f_clk
*360 clkbuf_2_2__f_clk
*361 clkbuf_2_3__f_clk
*362 fanout10
*363 fanout11
*364 fanout12
*365 fanout13
*366 fanout14
*367 fanout15
*368 hold32
*369 hold33
*370 hold34
*371 hold35
*372 hold36
*373 hold37
*374 hold38
*375 hold39
*376 hold40
*377 hold41
*378 hold42
*379 hold43
*380 hold44
*381 hold45
*382 hold46
*383 hold47
*384 input1
*385 input2
*386 input3
*387 input4
*388 input5
*389 input6
*390 input7
*391 output8
*392 output9

*PORTS
clk I
col_addr[0] I
col_addr[1] I
cs I
data_in I
data_out O
data_out_bar O
oe_n I
row_addr[0] I
row_addr[1] I
we_n I

*D_NET *3 0.00437978
*CONN
*P clk I
*I *357:A I *D sg13g2_buf_16
*CAP
1 clk 0.000108366
2 *357:A 8.75855e-05
3 *3:24 0.000184246
4 *3:18 0.00199394
5 *3:12 0.00200565
6 *357:A *86:49 0
7 *357:A *95:61 0
8 *3:18 *64:23 0
9 *3:18 *81:10 0
10 *3:18 *81:16 0
11 *3:24 *329:D 0
12 *3:24 *86:49 0
13 *3:24 *95:61 0
*RES
1 clk *3:12 41.1433 
2 *3:12 *3:18 41.7124 
3 *3:18 *3:24 40.9682 
4 *3:24 *357:A 20.9682 
*END

*D_NET *4 0.000592882
*CONN
*P col_addr[0] I
*I *384:A I *D sg13g2_buf_1
*CAP
1 col_addr[0] 0.000296441
2 *384:A 0.000296441
3 *384:A *333:RESET_B 0
*RES
1 col_addr[0] *384:A 43.6977 
*END

*D_NET *5 0.00146904
*CONN
*P col_addr[1] I
*I *385:A I *D sg13g2_buf_1
*CAP
1 col_addr[1] 0.000482445
2 *385:A 0.000252077
3 *5:13 0.000734522
4 *385:A *366:A 0
5 *385:A *374:A 0
6 *385:A *62:55 0
7 *385:A *95:10 0
8 *5:13 *62:35 0
9 *5:13 *62:55 0
*RES
1 col_addr[1] *5:13 45.7268 
2 *5:13 *385:A 42.266 
*END

*D_NET *6 0.00132482
*CONN
*P cs I
*I *386:A I *D sg13g2_buf_1
*CAP
1 cs 0.000662412
2 *386:A 0.000662412
3 *386:A *292:B 0
4 *386:A *390:A 0
*RES
1 cs *386:A 46.7259 
*END

*D_NET *7 0.00082654
*CONN
*P data_in I
*I *387:A I *D sg13g2_buf_1
*CAP
1 data_in 0.00041327
2 *387:A 0.00041327
*RES
1 data_in *387:A 44.9955 
*END

*D_NET *8 0.000895923
*CONN
*P data_out O
*I *391:X O *D sg13g2_buf_1
*CAP
1 data_out 0.000447961
2 *391:X 0.000447961
3 data_out data_out_bar 0
4 data_out *391:A 0
5 data_out *62:55 0
*RES
1 *391:X data_out 44.1097 
*END

*D_NET *9 0.00118466
*CONN
*P data_out_bar O
*I *392:X O *D sg13g2_buf_1
*CAP
1 data_out_bar 0.000592331
2 *392:X 0.000592331
3 data_out_bar *290:D 0
4 data_out_bar *391:A 0
5 data_out_bar *392:A 0
6 data_out_bar *128:10 0
7 data_out data_out_bar 0
*RES
1 *392:X data_out_bar 45.5311 
*END

*D_NET *11 0.000934696
*CONN
*P row_addr[0] I
*I *388:A I *D sg13g2_buf_1
*CAP
1 row_addr[0] 0.000467348
2 *388:A 0.000467348
3 *388:A *389:A 0
4 *388:A *125:12 0
*RES
1 row_addr[0] *388:A 44.5629 
*END

*D_NET *12 0.000926832
*CONN
*P row_addr[1] I
*I *389:A I *D sg13g2_buf_1
*CAP
1 row_addr[1] 0.000463416
2 *389:A 0.000463416
3 *389:A *390:A 0
4 *388:A *389:A 0
*RES
1 row_addr[1] *389:A 43.6977 
*END

*D_NET *13 0.00176885
*CONN
*P we_n I
*I *390:A I *D sg13g2_buf_1
*CAP
1 we_n 0.000686685
2 *390:A 0.000686685
3 *390:A *45:12 0.000395482
4 *390:A *126:10 0
5 *386:A *390:A 0
6 *389:A *390:A 0
*RES
1 we_n *390:A 46.6229 
*END

*D_NET *14 0.0011595
*CONN
*I *325:D I *D sg13g2_dfrbpq_1
*I *294:X O *D sg13g2_mux2_1
*CAP
1 *325:D 0
2 *294:X 0.000579752
3 *14:10 0.000579752
4 *14:10 *325:CLK 0
5 *14:10 *87:8 0
6 *14:10 *87:14 0
*RES
1 *294:X *14:10 46.6023 
2 *14:10 *325:D 40 
*END

*D_NET *15 0.00157117
*CONN
*I *327:D I *D sg13g2_dfrbpq_1
*I *296:X O *D sg13g2_mux2_1
*CAP
1 *327:D 0
2 *296:X 0.000785587
3 *15:10 0.000785587
4 *15:10 *82:16 0
*RES
1 *296:X *15:10 47.8074 
2 *15:10 *327:D 40 
*END

*D_NET *16 0.000873541
*CONN
*I *329:D I *D sg13g2_dfrbpq_1
*I *298:X O *D sg13g2_mux2_1
*CAP
1 *329:D 0.000284002
2 *298:X 0.000284002
3 *329:D *298:A1 0
4 *329:D *298:S 0
5 *329:D *329:RESET_B 0.000305538
6 *329:D *95:61 0
7 *3:24 *329:D 0
*RES
1 *298:X *329:D 43.1106 
*END

*D_NET *17 0.000967124
*CONN
*I *331:D I *D sg13g2_dfrbpq_1
*I *300:X O *D sg13g2_mux2_1
*CAP
1 *331:D 0
2 *300:X 0.000483562
3 *17:10 0.000483562
4 *17:10 *300:A1 0
5 *17:10 *125:12 0
*RES
1 *300:X *17:10 45.6753 
2 *17:10 *331:D 40 
*END

*D_NET *18 0.0011914
*CONN
*I *333:D I *D sg13g2_dfrbpq_1
*I *302:X O *D sg13g2_mux2_1
*CAP
1 *333:D 0.000148348
2 *302:X 0.000374931
3 *18:8 0.00052328
4 *333:D *333:RESET_B 0
5 *333:D *84:8 0.000144842
6 *18:8 *84:10 0
*RES
1 *302:X *18:8 44.3054 
2 *18:8 *333:D 41.6171 
*END

*D_NET *19 0.00263794
*CONN
*I *335:D I *D sg13g2_dfrbpq_1
*I *304:X O *D sg13g2_mux2_1
*CAP
1 *335:D 0.000407826
2 *304:X 0.000247321
3 *19:8 0.000655147
4 *335:D *331:CLK 0
5 *335:D *333:RESET_B 0
6 *335:D *335:RESET_B 0
7 *335:D *65:14 0
8 *19:8 *84:10 0.00098372
9 *19:8 *112:8 0.00034393
*RES
1 *304:X *19:8 44.5526 
2 *19:8 *335:D 44.429 
*END

*D_NET *20 0.000708555
*CONN
*I *337:D I *D sg13g2_dfrbpq_1
*I *306:X O *D sg13g2_mux2_1
*CAP
1 *337:D 0
2 *306:X 0.000354277
3 *20:10 0.000354277
4 *20:10 *306:A0 0
5 *20:10 *316:A0 0
6 *20:10 *347:RESET_B 0
7 *20:10 *62:80 0
8 *20:10 *111:8 0
*RES
1 *306:X *20:10 43.2057 
2 *20:10 *337:D 40 
*END

*D_NET *21 0.00111182
*CONN
*I *339:D I *D sg13g2_dfrbpq_1
*I *308:X O *D sg13g2_mux2_1
*CAP
1 *339:D 0.000186005
2 *308:X 0.000369908
3 *21:8 0.000555912
4 *339:D *339:RESET_B 0
*RES
1 *308:X *21:8 44.5526 
2 *21:8 *339:D 42.0497 
*END

*D_NET *22 0.000807918
*CONN
*I *341:D I *D sg13g2_dfrbpq_1
*I *310:X O *D sg13g2_mux2_1
*CAP
1 *341:D 0.000188861
2 *310:X 0.000215097
3 *22:8 0.000403959
4 *341:D *341:RESET_B 0
5 *22:8 *87:14 0
6 *22:8 *87:23 0
*RES
1 *310:X *22:8 42.575 
2 *22:8 *341:D 42.0497 
*END

*D_NET *23 0.00165821
*CONN
*I *343:D I *D sg13g2_dfrbpq_1
*I *312:X O *D sg13g2_mux2_1
*CAP
1 *343:D 0.000587282
2 *312:X 0.000145533
3 *23:8 0.000732815
4 *343:D *312:A0 0.000144842
5 *343:D *312:A1 0
6 *343:D *54:14 0
7 *343:D *76:20 4.77425e-05
*RES
1 *312:X *23:8 41.339 
2 *23:8 *343:D 45.8607 
*END

*D_NET *24 0.000948471
*CONN
*I *345:D I *D sg13g2_dfrbpq_1
*I *314:X O *D sg13g2_mux2_1
*CAP
1 *345:D 0.000474235
2 *314:X 0.000474235
3 *345:D *287:A1 0
4 *345:D *371:A 0
*RES
1 *314:X *345:D 44.8822 
*END

*D_NET *25 0.000527511
*CONN
*I *347:D I *D sg13g2_dfrbpq_1
*I *316:X O *D sg13g2_mux2_1
*CAP
1 *347:D 0.0002237
2 *316:X 0.0002237
3 *347:D *306:A1 0
4 *347:D *316:A0 0
5 *347:D *367:A 0
6 *347:D *57:12 8.01118e-05
*RES
1 *316:X *347:D 42.3999 
*END

*D_NET *26 0.00117156
*CONN
*I *349:D I *D sg13g2_dfrbpq_1
*I *318:X O *D sg13g2_mux2_1
*CAP
1 *349:D 0.00058578
2 *318:X 0.00058578
3 *349:D *287:A3 0
4 *349:D *320:A1 0
5 *349:D *351:D 0
6 *349:D *88:75 0
7 *349:D *95:61 0
*RES
1 *318:X *349:D 45.5208 
*END

*D_NET *27 0.000660598
*CONN
*I *351:D I *D sg13g2_dfrbpq_1
*I *320:X O *D sg13g2_mux2_1
*CAP
1 *351:D 0.000241578
2 *320:X 0.000241578
3 *351:D *320:A1 0
4 *351:D *95:61 0
5 *351:D *98:10 0.000177442
6 *349:D *351:D 0
*RES
1 *320:X *351:D 42.8119 
*END

*D_NET *28 0.0012575
*CONN
*I *353:D I *D sg13g2_dfrbpq_1
*I *322:X O *D sg13g2_mux2_1
*CAP
1 *353:D 0.000572466
2 *322:X 0.000572466
3 *353:D *353:RESET_B 0
4 *353:D *81:16 0
5 *353:D *82:12 0
6 *353:D *82:16 0.000112569
*RES
1 *322:X *353:D 45.6238 
*END

*D_NET *29 0.00120579
*CONN
*I *355:D I *D sg13g2_dfrbpq_1
*I *324:X O *D sg13g2_mux2_1
*CAP
1 *355:D 0.000449345
2 *324:X 0.000449345
3 *355:D *355:RESET_B 0
4 *355:D *370:A 0
5 *355:D *63:23 0
6 *355:D *76:12 0.000307099
*RES
1 *324:X *355:D 44.8204 
*END

*D_NET *30 0.00520346
*CONN
*I *315:A I *D sg13g2_nor3_1
*I *301:A I *D sg13g2_nor3_1
*I *307:A I *D sg13g2_nor3_1
*I *323:A I *D sg13g2_nor3_1
*I *275:Y O *D sg13g2_nand2b_1
*CAP
1 *315:A 0
2 *301:A 0
3 *307:A 0
4 *323:A 0
5 *275:Y 0.000101798
6 *30:40 0.000584746
7 *30:28 0.00104025
8 *30:18 0.000967582
9 *30:8 0.000613874
10 *30:8 *275:B 0
11 *30:8 *363:A 0
12 *30:8 *57:12 0
13 *30:8 *89:85 0
14 *30:18 *275:B 0
15 *30:18 *315:B 0
16 *30:18 *31:33 0.000225399
17 *30:18 *32:29 0
18 *30:18 *40:49 0.000208681
19 *30:18 *43:10 0.000122871
20 *30:18 *85:90 0.000128041
21 *30:18 *89:75 0
22 *30:18 *90:20 0
23 *30:28 *31:33 0.000321073
24 *30:28 *34:6 4.75166e-05
25 *30:28 *34:23 0
26 *30:28 *45:16 0.000127744
27 *30:28 *54:14 0.000288038
28 *30:28 *85:43 0
29 *30:40 *280:B 0
30 *30:40 *307:C 0
31 *30:40 *323:B 0
32 *30:40 *34:12 0
33 *30:40 *45:26 0
34 *30:40 *54:14 8.00842e-05
35 *30:40 *89:44 0.000345758
*RES
1 *275:Y *30:8 21.0362 
2 *30:8 *30:18 45.9328 
3 *30:18 *30:28 44.6968 
4 *30:28 *30:40 46.0976 
5 *30:40 *323:A 20 
6 *30:28 *307:A 20 
7 *30:18 *301:A 20 
8 *30:8 *315:A 20 
*END

*D_NET *31 0.00543058
*CONN
*I *319:A I *D sg13g2_nor3_1
*I *297:A I *D sg13g2_nor3_1
*I *305:A I *D sg13g2_nor3_1
*I *311:A I *D sg13g2_nor3_1
*I *276:Y O *D sg13g2_nand2_1
*CAP
1 *319:A 0.00030479
2 *297:A 4.86876e-05
3 *305:A 0
4 *311:A 7.82002e-05
5 *276:Y 0
6 *31:42 0.000478979
7 *31:33 0.000649282
8 *31:10 0.00131133
9 *31:6 0.000709348
10 *297:A *297:B 0
11 *297:A *313:A 8.01995e-05
12 *297:A *86:49 0
13 *311:A *279:B 0
14 *311:A *34:6 7.99033e-05
15 *319:A *313:A 0.000518166
16 *319:A *86:36 0.000145099
17 *319:A *86:49 0
18 *31:10 *35:10 0
19 *31:10 *45:16 0
20 *31:10 *89:44 0
21 *31:33 *279:B 0
22 *31:33 *301:B 4.77425e-05
23 *31:33 *34:6 0.000160604
24 *31:33 *50:10 0
25 *31:33 *89:53 0
26 *31:33 *125:14 0.000127781
27 *31:33 *126:10 0
28 *31:33 *126:14 0.000143998
29 *31:42 *35:10 0
30 *30:18 *31:33 0.000225399
31 *30:28 *31:33 0.000321073
*RES
1 *276:Y *31:6 40 
2 *31:6 *31:10 25.5414 
3 *31:10 *311:A 20.8858 
4 *31:10 *31:33 46.414 
5 *31:33 *305:A 20 
6 *31:6 *31:42 21.339 
7 *31:42 *297:A 20.5356 
8 *31:42 *319:A 23.5638 
*END

*D_NET *32 0.00683913
*CONN
*I *317:A I *D sg13g2_nor3_1
*I *303:A I *D sg13g2_nor3_1
*I *309:A I *D sg13g2_nor3_1
*I *295:A I *D sg13g2_nor3_1
*I *277:Y O *D sg13g2_nand2b_1
*CAP
1 *317:A 0.000436173
2 *303:A 0
3 *309:A 0
4 *295:A 0
5 *277:Y 0.000103392
6 *32:41 0.000285455
7 *32:29 0.000988519
8 *32:23 0.00160426
9 *32:14 0.000205792
10 *32:6 0.00077421
11 *317:A *41:10 0
12 *317:A *43:21 0
13 *317:A *43:38 0
14 *317:A *86:36 0.00024184
15 *32:6 *277:B 0
16 *32:6 *45:26 0.000143571
17 *32:14 *277:B 0
18 *32:14 *295:B 0
19 *32:14 *86:81 0.000290175
20 *32:14 *89:38 0.00011101
21 *32:14 *89:44 0.00023565
22 *32:14 *90:61 0
23 *32:14 *90:78 0.000143351
24 *32:23 *276:A 0
25 *32:23 *363:A 0.000468923
26 *32:23 *45:26 0.000291238
27 *32:23 *62:8 0
28 *32:23 *62:71 0
29 *32:23 *62:80 0
30 *32:23 *84:41 0
31 *32:29 *40:8 0
32 *32:29 *40:10 0
33 *32:29 *41:10 0
34 *32:29 *43:10 0
35 *32:29 *43:21 0
36 *32:29 *85:90 0.000112426
37 *32:29 *90:22 0
38 *32:29 *126:20 0
39 *32:41 *299:A 0
40 *32:41 *40:26 4.68848e-05
41 *32:41 *85:39 8.00842e-05
42 *32:41 *85:43 8.00842e-05
43 *32:41 *85:90 1.54008e-05
44 *32:41 *125:14 0.000180682
45 *30:18 *32:29 0
*RES
1 *277:Y *32:6 20.9682 
2 *32:6 *32:14 42.7398 
3 *32:14 *295:A 20 
4 *32:6 *32:23 25.0779 
5 *32:23 *32:29 26.7877 
6 *32:29 *32:41 42.884 
7 *32:41 *309:A 20 
8 *32:29 *303:A 20 
9 *32:23 *317:A 44.6865 
*END

*D_NET *33 0.00139603
*CONN
*I *280:B I *D sg13g2_nand2b_1
*I *278:X O *D sg13g2_mux4_1
*CAP
1 *280:B 0.000625638
2 *278:X 0.000625638
3 *280:B *278:S1 0
4 *280:B *323:B 0
5 *280:B *37:8 0.000144754
6 *280:B *61:10 0
7 *280:B *90:61 0
8 *30:40 *280:B 0
*RES
1 *278:X *280:B 45.9946 
*END

*D_NET *34 0.00318313
*CONN
*I *311:B I *D sg13g2_nor3_1
*I *280:A_N I *D sg13g2_nand2b_1
*I *309:B I *D sg13g2_nor3_1
*I *293:C I *D sg13g2_nor4_1
*I *307:B I *D sg13g2_nor3_1
*I *279:X O *D sg13g2_or2_1
*CAP
1 *311:B 0
2 *280:A_N 0.000288817
3 *309:B 2.4748e-05
4 *293:C 0
5 *307:B 0
6 *279:X 0.000146734
7 *34:29 0.000156156
8 *34:23 0.000474412
9 *34:12 0.000440822
10 *34:8 0.000436132
11 *34:6 0.000146734
12 *280:A_N *45:16 0
13 *280:A_N *89:44 0.000184311
14 *309:B *309:C 1.54008e-05
15 *309:B *85:39 3.23417e-05
16 *34:6 *311:C 0.00011228
17 *34:6 *54:14 0
18 *34:12 *45:16 0
19 *34:12 *53:8 7.58806e-05
20 *34:23 *307:C 1.32751e-05
21 *34:23 *85:39 0.000112335
22 *34:23 *90:36 0
23 *34:29 *45:16 0
24 *34:29 *89:59 0.000234727
25 *311:A *34:6 7.99033e-05
26 *30:28 *34:6 4.75166e-05
27 *30:28 *34:23 0
28 *30:40 *34:12 0
29 *31:33 *34:6 0.000160604
*RES
1 *279:X *34:6 21.6171 
2 *34:6 *34:8 20 
3 *34:8 *34:12 21.339 
4 *34:12 *307:B 20 
5 *34:12 *34:23 2.7501 
6 *34:23 *34:29 41.5862 
7 *34:29 *293:C 20 
8 *34:23 *309:B 20.3193 
9 *34:8 *280:A_N 42.575 
10 *34:6 *311:B 20 
*END

*D_NET *35 0.00405759
*CONN
*I *290:A I *D sg13g2_and4_1
*I *291:A I *D sg13g2_nand4_1
*I *280:Y O *D sg13g2_nand2b_1
*CAP
1 *290:A 0.000119671
2 *291:A 0.000121906
3 *280:Y 0.000206873
4 *35:10 0.00105943
5 *35:8 0.00102472
6 *290:A *290:C 0.000212958
7 *290:A *41:10 0.000181192
8 *290:A *128:10 0.000341949
9 *291:A *291:D 0
10 *291:A *95:61 0.000167086
11 *291:A *128:10 4.77425e-05
12 *35:8 *37:8 0.000339008
13 *35:8 *45:26 0
14 *35:10 *41:10 0
15 *35:10 *45:16 0.000235055
16 *35:10 *48:8 0
17 *35:10 *114:8 0
18 *31:10 *35:10 0
19 *31:42 *35:10 0
*RES
1 *280:Y *35:8 42.266 
2 *35:8 *35:10 8.755 
3 *35:10 *291:A 41.3184 
4 *35:10 *290:A 42.369 
*END

*D_NET *36 0.00110208
*CONN
*I *283:B I *D sg13g2_nand2b_1
*I *281:X O *D sg13g2_mux4_1
*CAP
1 *283:B 0.000551042
2 *281:X 0.000551042
3 *283:B *283:A_N 0
4 *283:B *291:B 0
5 *283:B *329:RESET_B 0
6 *283:B *329:CLK 0
7 *283:B *374:A 0
8 *283:B *89:23 0
*RES
1 *281:X *283:B 44.6877 
*END

*D_NET *37 0.00675428
*CONN
*I *283:A_N I *D sg13g2_nand2b_1
*I *297:B I *D sg13g2_nor3_1
*I *321:C I *D sg13g2_nor4_1
*I *295:B I *D sg13g2_nor3_1
*I *323:B I *D sg13g2_nor3_1
*I *282:Y O *D sg13g2_nand2b_1
*CAP
1 *283:A_N 0.000430853
2 *297:B 7.94194e-05
3 *321:C 0.000101137
4 *295:B 9.10037e-05
5 *323:B 9.2619e-05
6 *282:Y 0.000435595
7 *37:32 0.000180556
8 *37:30 0.000518163
9 *37:19 0.000339616
10 *37:8 0.000689515
11 *283:A_N *89:23 0.00107722
12 *283:A_N *95:61 0.000144217
13 *283:A_N *114:8 0
14 *295:B *295:C 4.77702e-05
15 *295:B *86:81 9.62535e-05
16 *295:B *90:78 7.9225e-05
17 *297:B *84:41 9.66606e-05
18 *297:B *86:51 0.00014436
19 *321:C *321:D 8.01116e-05
20 *321:C *84:41 0.000143908
21 *321:C *86:51 9.61659e-05
22 *321:C *90:61 0
23 *321:C *90:78 0
24 *323:B *86:81 0.000144216
25 *37:8 *282:B 0
26 *37:8 *363:A 0
27 *37:8 *86:81 0
28 *37:8 *89:53 0
29 *37:19 *277:B 0.000127305
30 *37:19 *86:81 0.000505438
31 *37:19 *89:23 0.00018387
32 *37:30 *86:81 7.62389e-05
33 *37:30 *89:23 0.000269079
34 *280:B *323:B 0
35 *280:B *37:8 0.000144754
36 *283:B *283:A_N 0
37 *297:A *297:B 0
38 *30:40 *323:B 0
39 *32:14 *295:B 0
40 *35:8 *37:8 0.000339008
*RES
1 *282:Y *37:8 24.4084 
2 *37:8 *323:B 20.9682 
3 *37:8 *37:19 22.575 
4 *37:19 *295:B 40.9682 
5 *37:19 *37:30 1.339 
6 *37:30 *37:32 20 
7 *37:32 *321:C 21.1845 
8 *37:32 *297:B 20.9682 
9 *37:30 *283:A_N 46.0152 
*END

*D_NET *38 0.00121272
*CONN
*I *290:B I *D sg13g2_and4_1
*I *291:B I *D sg13g2_nand4_1
*I *283:Y O *D sg13g2_nand2b_1
*CAP
1 *290:B 4.35554e-05
2 *291:B 0.00019434
3 *283:Y 0.00010007
4 *38:12 0.000458532
5 *38:8 0.000320707
6 *291:B *290:D 0
7 *291:B *291:C 4.77425e-05
8 *291:B *128:10 4.77699e-05
9 *38:12 *95:61 0
10 *283:B *291:B 0
*RES
1 *283:Y *38:8 40.8446 
2 *38:8 *38:12 22.266 
3 *38:12 *291:B 22.3381 
4 *38:12 *290:B 20.5356 
*END

*D_NET *39 0.000556405
*CONN
*I *286:B I *D sg13g2_nand2b_1
*I *284:X O *D sg13g2_mux4_1
*CAP
1 *286:B 0.000165654
2 *284:X 0.000165654
3 *286:B *286:A_N 0
4 *286:B *41:8 8.01392e-05
5 *286:B *89:85 0
6 *286:B *90:12 0.000144958
*RES
1 *284:X *286:B 41.751 
*END

*D_NET *40 0.0032064
*CONN
*I *286:A_N I *D sg13g2_nand2b_1
*I *305:B I *D sg13g2_nor3_1
*I *301:B I *D sg13g2_nor3_1
*I *303:B I *D sg13g2_nor3_1
*I *299:C I *D sg13g2_nor4_1
*I *285:Y O *D sg13g2_nand2_1
*CAP
1 *286:A_N 0.000118271
2 *305:B 4.2247e-05
3 *301:B 3.34444e-05
4 *303:B 0
5 *299:C 0
6 *285:Y 5.64935e-05
7 *40:49 0.000318081
8 *40:26 0.000389706
9 *40:16 0.000554996
10 *40:10 0.000308464
11 *40:8 0.000323785
12 *286:A_N *41:8 0
13 *286:A_N *52:12 0
14 *40:8 *126:20 7.51285e-05
15 *40:10 *125:14 0
16 *40:16 *85:43 1.54008e-05
17 *40:16 *85:45 7.48842e-05
18 *40:16 *85:80 0.000127744
19 *40:16 *90:22 0
20 *40:26 *293:D 0.000144068
21 *40:26 *299:A 0
22 *40:26 *85:43 0.00014391
23 *40:26 *90:22 3.23694e-05
24 *40:26 *90:28 0.000144102
25 *40:26 *125:14 0
26 *40:26 *126:10 0
27 *40:49 *41:8 0
28 *286:B *286:A_N 0
29 *30:18 *40:49 0.000208681
30 *31:33 *301:B 4.77425e-05
31 *32:29 *40:8 0
32 *32:29 *40:10 0
33 *32:41 *40:26 4.68848e-05
*RES
1 *285:Y *40:8 40.5974 
2 *40:8 *40:10 0.8446 
3 *40:10 *40:16 21.6583 
4 *40:16 *40:26 43.7389 
5 *40:26 *299:C 20 
6 *40:16 *303:B 20 
7 *40:10 *301:B 40.3193 
8 *40:8 *40:49 21.6171 
9 *40:49 *305:B 20.5356 
10 *40:49 *286:A_N 21.3802 
*END

*D_NET *41 0.00445679
*CONN
*I *290:C I *D sg13g2_and4_1
*I *291:C I *D sg13g2_nand4_1
*I *286:Y O *D sg13g2_nand2b_1
*CAP
1 *290:C 0.000142833
2 *291:C 2.60565e-05
3 *286:Y 0.000392191
4 *41:10 0.00119853
5 *41:8 0.00142183
6 *290:C *118:8 0
7 *290:C *128:10 0
8 *291:C *291:D 4.77425e-05
9 *41:8 *279:B 0
10 *41:8 *89:75 0.000565651
11 *41:8 *89:85 6.4711e-05
12 *41:10 *289:A_N 0
13 *41:10 *319:B 0
14 *41:10 *45:16 0
15 *41:10 *89:59 7.52149e-05
16 *286:B *41:8 8.01392e-05
17 *286:A_N *41:8 0
18 *290:A *290:C 0.000212958
19 *290:A *41:10 0.000181192
20 *291:B *291:C 4.77425e-05
21 *317:A *41:10 0
22 *32:29 *41:10 0
23 *35:10 *41:10 0
24 *40:49 *41:8 0
*RES
1 *286:Y *41:8 44.2127 
2 *41:8 *41:10 11.227 
3 *41:10 *291:C 40.3193 
4 *41:10 *290:C 41.9055 
*END

*D_NET *42 0.000994028
*CONN
*I *289:B I *D sg13g2_nand2b_1
*I *287:X O *D sg13g2_mux4_1
*CAP
1 *289:B 0.000438184
2 *287:X 0.000438184
3 *289:B *289:A_N 1.54008e-05
4 *289:B *351:RESET_B 8.00842e-05
5 *289:B *95:61 2.21754e-05
6 *289:B *120:10 0
*RES
1 *287:X *289:B 44.1612 
*END

*D_NET *43 0.0039685
*CONN
*I *317:B I *D sg13g2_nor3_1
*I *289:A_N I *D sg13g2_nand2b_1
*I *319:B I *D sg13g2_nor3_1
*I *313:C I *D sg13g2_nor4_1
*I *315:B I *D sg13g2_nor3_1
*I *288:Y O *D sg13g2_nand2b_1
*CAP
1 *317:B 5.54938e-05
2 *289:A_N 0.000471405
3 *319:B 9.52293e-05
4 *313:C 1.72309e-05
5 *315:B 6.58066e-05
6 *288:Y 0.000295459
7 *43:38 0.000801773
8 *43:34 0.000466458
9 *43:21 0.000504555
10 *43:10 0.000672763
11 *289:A_N *59:8 0
12 *289:A_N *95:61 8.00842e-05
13 *289:A_N *118:8 0
14 *313:C *313:D 3.15716e-05
15 *313:C *84:41 3.15716e-05
16 *315:B *363:A 0
17 *319:B *319:C 8.02269e-05
18 *319:B *86:36 8.03692e-05
19 *43:10 *282:B 0
20 *43:10 *288:B 0
21 *43:10 *363:A 0
22 *43:10 *89:75 0
23 *43:21 *315:C 0
24 *43:21 *86:19 0
25 *43:34 *59:8 0
26 *43:38 *319:C 8.02269e-05
27 *43:38 *320:A1 0
28 *43:38 *320:S 0
29 *43:38 *86:36 0
30 *289:B *289:A_N 1.54008e-05
31 *317:A *43:21 0
32 *317:A *43:38 0
33 *30:18 *315:B 0
34 *30:18 *43:10 0.000122871
35 *32:29 *43:10 0
36 *32:29 *43:21 0
37 *41:10 *289:A_N 0
38 *41:10 *319:B 0
*RES
1 *288:Y *43:10 43.1106 
2 *43:10 *315:B 40.5356 
3 *43:10 *43:21 2.8222 
4 *43:21 *313:C 40.2112 
5 *43:21 *43:34 21.5862 
6 *43:34 *43:38 22.266 
7 *43:38 *319:B 41.133 
8 *43:38 *289:A_N 44.841 
9 *43:34 *317:B 20.5356 
*END

*D_NET *44 0.000668038
*CONN
*I *290:D I *D sg13g2_and4_1
*I *291:D I *D sg13g2_nand4_1
*I *289:Y O *D sg13g2_nand2b_1
*CAP
1 *290:D 0.000179627
2 *291:D 5.9233e-05
3 *289:Y 7.12882e-05
4 *44:6 0.000310148
5 *290:D *392:A 0
6 *291:D *95:61 0
7 *44:6 *95:61 0
8 data_out_bar *290:D 0
9 *291:B *290:D 0
10 *291:C *291:D 4.77425e-05
11 *291:A *291:D 0
*RES
1 *289:Y *44:6 20.7519 
2 *44:6 *291:D 20.4791 
3 *44:6 *290:D 22.3381 
*END

*D_NET *45 0.00748659
*CONN
*I *363:A I *D sg13g2_buf_1
*I *362:A I *D sg13g2_buf_1
*I *292:Y O *D sg13g2_nand2b_1
*CAP
1 *363:A 0.000648996
2 *362:A 0
3 *292:Y 0.000288429
4 *45:26 0.000790091
5 *45:16 0.00247195
6 *45:12 0.00132129
7 *363:A *282:B 0
8 *363:A *57:12 0
9 *363:A *62:80 0
10 *363:A *86:8 0
11 *45:12 *292:B 8.01118e-05
12 *45:12 *292:A_N 0
13 *45:12 *126:10 0
14 *45:16 *311:C 0
15 *45:16 *53:8 0
16 *45:16 *67:8 0
17 *45:16 *85:39 0
18 *45:16 *89:59 0
19 *45:16 *126:10 0
20 *45:26 *277:B 0
21 *45:26 *54:14 4.77083e-05
22 *45:26 *86:81 0.000176001
23 *280:A_N *45:16 0
24 *315:B *363:A 0
25 *390:A *45:12 0.000395482
26 *30:8 *363:A 0
27 *30:28 *45:16 0.000127744
28 *30:40 *45:26 0
29 *31:10 *45:16 0
30 *32:6 *45:26 0.000143571
31 *32:23 *363:A 0.000468923
32 *32:23 *45:26 0.000291238
33 *34:12 *45:16 0
34 *34:29 *45:16 0
35 *35:8 *45:26 0
36 *35:10 *45:16 0.000235055
37 *37:8 *363:A 0
38 *41:10 *45:16 0
39 *43:10 *363:A 0
*RES
1 *292:Y *45:12 43.8625 
2 *45:12 *45:16 30.9798 
3 *45:16 *45:26 48.4666 
4 *45:26 *362:A 20 
5 *45:16 *363:A 26.4072 
*END

*D_NET *46 0.00091741
*CONN
*I *294:S I *D sg13g2_mux2_1
*I *293:Y O *D sg13g2_nor4_1
*CAP
1 *294:S 0.000458705
2 *293:Y 0.000458705
3 *294:S *293:D 0
4 *294:S *294:A0 0
5 *294:S *308:A0 0
6 *294:S *308:S 0
7 *294:S *87:8 0
8 *294:S *90:36 0
*RES
1 *293:Y *294:S 44.5423 
*END

*D_NET *47 0.00218559
*CONN
*I *296:S I *D sg13g2_mux2_1
*I *295:Y O *D sg13g2_nor3_1
*CAP
1 *296:S 0.00044138
2 *295:Y 0.000296105
3 *47:8 0.000737485
4 *296:S *298:A1 0
5 *296:S *321:D 0
6 *296:S *322:S 0.000339036
7 *296:S *81:16 0
8 *296:S *90:54 8.00842e-05
9 *47:8 *86:64 0.000291502
*RES
1 *295:Y *47:8 43.0694 
2 *47:8 *296:S 44.7998 
*END

*D_NET *48 0.000374937
*CONN
*I *298:S I *D sg13g2_mux2_1
*I *297:Y O *D sg13g2_nor3_1
*CAP
1 *298:S 5.16137e-05
2 *297:Y 0.000135855
3 *48:8 0.000187469
4 *298:S *298:A1 0
5 *298:S *86:49 0
6 *329:D *298:S 0
7 *35:10 *48:8 0
*RES
1 *297:Y *48:8 41.5862 
2 *48:8 *298:S 40.5356 
*END

*D_NET *49 0.000311325
*CONN
*I *300:S I *D sg13g2_mux2_1
*I *299:Y O *D sg13g2_nor4_1
*CAP
1 *300:S 0.000155662
2 *299:Y 0.000155662
3 *300:S *293:D 0
4 *300:S *364:A 0
*RES
1 *299:Y *300:S 41.6995 
*END

*D_NET *50 0.00234121
*CONN
*I *302:S I *D sg13g2_mux2_1
*I *301:Y O *D sg13g2_nor3_1
*CAP
1 *302:S 0.000202465
2 *301:Y 0.000390211
3 *50:10 0.000592676
4 *302:S *300:A1 0
5 *302:S *302:A0 0
6 *302:S *364:A 0
7 *50:10 *304:S 0
8 *50:10 *373:A 0.000212577
9 *50:10 *70:8 0.000233975
10 *50:10 *85:90 0.000208458
11 *50:10 *90:20 0.000500843
12 *31:33 *50:10 0
*RES
1 *301:Y *50:10 45.1191 
2 *50:10 *302:S 41.9673 
*END

*D_NET *51 0.00153863
*CONN
*I *304:S I *D sg13g2_mux2_1
*I *303:Y O *D sg13g2_nor3_1
*CAP
1 *304:S 0.000601335
2 *303:Y 0.000601335
3 *304:S *284:A0 0
4 *304:S *284:A1 0.000240472
5 *304:S *304:A0 1.54008e-05
6 *304:S *364:A 0
7 *304:S *373:A 8.00842e-05
8 *304:S *52:12 0
9 *304:S *90:22 0
10 *50:10 *304:S 0
*RES
1 *303:Y *304:S 46.3242 
*END

*D_NET *52 0.00202406
*CONN
*I *306:S I *D sg13g2_mux2_1
*I *305:Y O *D sg13g2_nor3_1
*CAP
1 *306:S 0.000203458
2 *305:Y 0.000421462
3 *52:12 0.000624921
4 *306:S *284:A3 0
5 *306:S *306:A1 0
6 *52:12 *284:A3 0.000305009
7 *52:12 *372:A 0.000181573
8 *52:12 *84:10 0
9 *52:12 *88:36 0.000287637
10 *52:12 *90:12 0
11 *286:A_N *52:12 0
12 *304:S *52:12 0
*RES
1 *305:Y *52:12 45.0367 
2 *52:12 *306:S 42.0497 
*END

*D_NET *53 0.00270059
*CONN
*I *308:S I *D sg13g2_mux2_1
*I *307:Y O *D sg13g2_nor3_1
*CAP
1 *308:S 0.000547286
2 *307:Y 0.000188606
3 *53:8 0.000735892
4 *308:S *308:A0 0
5 *308:S *74:10 0.000144843
6 *308:S *87:14 0
7 *308:S *90:36 0.000824892
8 *53:8 *311:C 0
9 *53:8 *67:8 0.000183192
10 *53:8 *85:8 0
11 *53:8 *85:39 0
12 *294:S *308:S 0
13 *34:12 *53:8 7.58806e-05
14 *45:16 *53:8 0
*RES
1 *307:Y *53:8 42.0806 
2 *53:8 *308:S 45.8607 
*END

*D_NET *54 0.00282576
*CONN
*I *310:S I *D sg13g2_mux2_1
*I *309:Y O *D sg13g2_nor3_1
*CAP
1 *310:S 0
2 *309:Y 0.00114882
3 *54:14 0.00114882
4 *54:14 *278:A0 0
5 *54:14 *278:A2 0
6 *54:14 *307:C 0
7 *54:14 *311:C 0.00011228
8 *54:14 *312:A0 0
9 *54:14 *312:S 0
10 *54:14 *368:A 0
11 *54:14 *63:8 0
12 *54:14 *63:34 0
13 *54:14 *76:20 0
14 *343:D *54:14 0
15 *30:28 *54:14 0.000288038
16 *30:40 *54:14 8.00842e-05
17 *34:6 *54:14 0
18 *45:26 *54:14 4.77083e-05
*RES
1 *309:Y *54:14 31.5154 
2 *54:14 *310:S 20 
*END

*D_NET *55 0.000319066
*CONN
*I *312:S I *D sg13g2_mux2_1
*I *311:Y O *D sg13g2_nor3_1
*CAP
1 *312:S 0.000159533
2 *311:Y 0.000159533
3 *312:S *278:S1 0
4 *54:14 *312:S 0
*RES
1 *311:Y *312:S 41.4008 
*END

*D_NET *56 0.000805468
*CONN
*I *314:S I *D sg13g2_mux2_1
*I *313:Y O *D sg13g2_nor4_1
*CAP
1 *314:S 0.000402734
2 *313:Y 0.000402734
3 *314:S *287:S0 0
4 *314:S *313:A 0
5 *314:S *314:A1 0
6 *314:S *62:80 0
7 *314:S *84:27 0
*RES
1 *313:Y *314:S 44.1612 
*END

*D_NET *57 0.00138408
*CONN
*I *316:S I *D sg13g2_mux2_1
*I *315:Y O *D sg13g2_nor3_1
*CAP
1 *316:S 0
2 *315:Y 0.00047277
3 *57:12 0.00047277
4 *57:12 *316:A1 4.77425e-05
5 *57:12 *62:80 0
6 *57:12 *88:47 7.51285e-05
7 *57:12 *88:58 0.000235556
8 *57:12 *89:85 0
9 *347:D *57:12 8.01118e-05
10 *363:A *57:12 0
11 *30:8 *57:12 0
*RES
1 *315:Y *57:12 45.253 
2 *57:12 *316:S 40 
*END

*D_NET *58 0.000246317
*CONN
*I *318:S I *D sg13g2_mux2_1
*I *317:Y O *D sg13g2_nor3_1
*CAP
1 *318:S 0.000123158
2 *317:Y 0.000123158
3 *318:S *320:A1 0
*RES
1 *317:Y *318:S 41.3802 
*END

*D_NET *59 0.000355493
*CONN
*I *320:S I *D sg13g2_mux2_1
*I *319:Y O *D sg13g2_nor3_1
*CAP
1 *320:S 5.09365e-05
2 *319:Y 0.00012681