*SPEF "ieee 1481-1999"
*DESIGN "sram"
*DATE "00:04:03 Saturday May 16, 2026"
*VENDOR "The OpenROAD Project"
*PROGRAM "OpenROAD"
*VERSION "dcf36133a369abc8f3c5e5738cd4d82e4903c0e0"
*DESIGN_FLOW "NAME_SCOPE LOCAL" "PIN_CAP NONE"
*DIVIDER /
*DELIMITER :
*BUS_DELIMITER []
*T_UNIT 1 NS
*C_UNIT 1 PF
*R_UNIT 1 OHM
*L_UNIT 1 HENRY

*NAME_MAP
*3 clk
*4 col_addr[0]
*5 col_addr[1]
*6 cs
*7 data_in
*8 data_out
*9 data_out_bar
*10 oe_n
*11 row_addr[0]
*12 row_addr[1]
*13 we_n
*14 _000_
*15 _001_
*16 _002_
*17 _003_
*18 _004_
*19 _005_
*20 _006_
*21 _007_
*22 _008_
*23 _009_
*24 _010_
*25 _011_
*26 _012_
*27 _013_
*28 _014_
*29 _015_
*30 _016_
*31 _017_
*32 _018_
*33 _019_
*34 _020_
*35 _021_
*36 _022_
*37 _023_
*38 _024_
*39 _025_
*40 _026_
*41 _027_
*42 _028_
*43 _029_
*44 _030_
*45 _031_
*46 _032_
*47 _033_
*48 _034_
*49 _035_
*50 _036_
*51 _037_
*52 _038_
*53 _039_
*54 _040_
*55 _041_
*56 _042_
*57 _043_
*58 _044_
*59 _045_
*60 _046_
*61 _047_
*62 clknet_0_clk
*63 clknet_2_0__leaf_clk
*64 clknet_2_1__leaf_clk
*65 clknet_2_2__leaf_clk
*66 clknet_2_3__leaf_clk
*67 memory\[0\]
*68 memory\[10\]
*69 memory\[11\]
*70 memory\[12\]
*71 memory\[13\]
*72 memory\[14\]
*73 memory\[15\]
*74 memory\[1\]
*75 memory\[2\]
*76 memory\[3\]
*77 memory\[4\]
*78 memory\[5\]
*79 memory\[6\]
*80 memory\[7\]
*81 memory\[8\]
*82 memory\[9\]
*83 net
*84 net1
*85 net10
*86 net11
*87 net12
*88 net13
*89 net14
*90 net15
*91 net16
*92 net17
*93 net18
*94 net19
*95 net2
*96 net20
*97 net21
*98 net22
*99 net23
*100 net24
*101 net25
*102 net26
*103 net27
*104 net28
*105 net29
*106 net3
*107 net30
*108 net31
*109 net32
*110 net33
*111 net34
*112 net35
*113 net36
*114 net37
*115 net38
*116 net39
*117 net4
*118 net40
*119 net41
*120 net42
*121 net43
*122 net44
*123 net45
*124 net46
*125 net5
*126 net6
*127 net7
*128 net8
*129 net9
*130 FILLER_0_0
*131 FILLER_0_117
*132 FILLER_0_14
*133 FILLER_0_21
*134 FILLER_0_28
*135 FILLER_0_35
*136 FILLER_0_42
*137 FILLER_0_49
*138 FILLER_0_51
*139 FILLER_0_56
*140 FILLER_0_63
*141 FILLER_0_7
*142 FILLER_0_70
*143 FILLER_0_77
*144 FILLER_0_84
*145 FILLER_0_88
*146 FILLER_10_109
*147 FILLER_10_116
*148 FILLER_10_12
*149 FILLER_10_19
*150 FILLER_10_4
*151 FILLER_10_51
*152 FILLER_10_58
*153 FILLER_10_60
*154 FILLER_10_65
*155 FILLER_10_72
*156 FILLER_10_76
*157 FILLER_10_98
*158 FILLER_11_0
*159 FILLER_11_2
*160 FILLER_11_53
*161 FILLER_11_67
*162 FILLER_11_71
*163 FILLER_11_82
*164 FILLER_11_89
*165 FILLER_12_0
*166 FILLER_12_14
*167 FILLER_12_16
*168 FILLER_12_21
*169 FILLER_12_7
*170 FILLER_12_85
*171 FILLER_13_108
*172 FILLER_13_11
*173 FILLER_13_115
*174 FILLER_13_117
*175 FILLER_13_39
*176 FILLER_13_4
*177 FILLER_13_71
*178 FILLER_14_0
*179 FILLER_14_101
*180 FILLER_14_108
*181 FILLER_14_115
*182 FILLER_14_117
*183 FILLER_14_14
*184 FILLER_14_21
*185 FILLER_14_28
*186 FILLER_14_32
*187 FILLER_14_46
*188 FILLER_14_60
*189 FILLER_14_67
*190 FILLER_14_7
*191 FILLER_14_74
*192 FILLER_14_81
*193 FILLER_14_85
*194 FILLER_14_90
*195 FILLER_1_0
*196 FILLER_1_108
*197 FILLER_1_115
*198 FILLER_1_117
*199 FILLER_1_14
*200 FILLER_1_21
*201 FILLER_1_61
*202 FILLER_1_7
*203 FILLER_1_92
*204 FILLER_2_0
*205 FILLER_2_14
*206 FILLER_2_21
*207 FILLER_2_28
*208 FILLER_2_34
*209 FILLER_2_45
*210 FILLER_2_7
*211 FILLER_2_77
*212 FILLER_2_88
*213 FILLER_3_0
*214 FILLER_3_15
*215 FILLER_3_22
*216 FILLER_3_55
*217 FILLER_3_62
*218 FILLER_3_7
*219 FILLER_3_73
*220 FILLER_3_77
*221 FILLER_3_89
*222 FILLER_4_0
*223 FILLER_4_117
*224 FILLER_4_33
*225 FILLER_4_4
*226 FILLER_4_68
*227 FILLER_4_75
*228 FILLER_5_11
*229 FILLER_5_18
*230 FILLER_5_30
*231 FILLER_5_4
*232 FILLER_5_54
*233 FILLER_5_56
*234 FILLER_5_6
*235 FILLER_5_78
*236 FILLER_5_88
*237 FILLER_5_90
*238 FILLER_6_0
*239 FILLER_6_110
*240 FILLER_6_48
*241 FILLER_6_52
*242 FILLER_6_59
*243 FILLER_6_70
*244 FILLER_6_77
*245 FILLER_6_79
*246 FILLER_6_99
*247 FILLER_7_106
*248 FILLER_7_113
*249 FILLER_7_117
*250 FILLER_7_16
*251 FILLER_7_23
*252 FILLER_7_4
*253 FILLER_7_40
*254 FILLER_7_49
*255 FILLER_7_58
*256 FILLER_7_6
*257 FILLER_7_60
*258 FILLER_7_86
*259 FILLER_7_90
*260 FILLER_8_109
*261 FILLER_8_11
*262 FILLER_8_34
*263 FILLER_8_4
*264 FILLER_8_49
*265 FILLER_8_58
*266 FILLER_8_6
*267 FILLER_8_65
*268 FILLER_8_77
*269 FILLER_8_98
*270 FILLER_9_0
*271 FILLER_9_38
*272 FILLER_9_62
*273 FILLER_9_66
*274 FILLER_9_89
*275 _064_
*276 _065_
*277 _066_
*278 _067_
*279 _068_
*280 _069_
*281 _070_
*282 _071_
*283 _072_
*284 _073_
*285 _074_
*286 _075_
*287 _076_
*288 _077_
*289 _078_
*290 _079_
*291 _080_
*292 _081_
*293 _082_
*294 _083_
*295 _084_
*296 _085_
*297 _086_
*298 _087_
*299 _088_
*300 _089_
*301 _090_
*302 _091_
*303 _092_
*304 _093_
*305 _094_
*306 _095_
*307 _096_
*308 _097_
*309 _098_
*310 _099_
*311 _100_
*312 _101_
*313 _102_
*314 _103_
*315 _104_
*316 _105_
*317 _106_
*318 _107_
*319 _108_
*320 _109_
*321 _110_
*322 _111_
*323 _112_
*324 _113_
*325 _114_
*326 _114__20
*327 _115_
*328 _115__19
*329 _116_
*330 _116__18
*331 _117_
*332 _117__17
*333 _118_
*334 _118__16
*335 _119_
*336 _119__31
*337 _120_
*338 _120__30
*339 _121_
*340 _121__29
*341 _122_
*342 _122__28
*343 _123_
*344 _123__27
*345 _124_
*346 _124__26
*347 _125_
*348 _125__25
*349 _126_
*350 _126__24
*351 _127_
*352 _127__23
*353 _128_
*354 _128__22
*355 _129_
*356 _129__21
*357 clkbuf_0_clk
*358 clkbuf_2_0__f_clk
*359 clkbuf_2_1__f_clk
*360 clkbuf_2_2__f_clk
*361 clkbuf_2_3__f_clk
*362 fanout10
*363 fanout11
*364 fanout12
*365 fanout13
*366 fanout14
*367 fanout15
*368 hold32
*369 hold33
*370 hold34
*371 hold35
*372 hold36
*373 hold37
*374 hold38
*375 hold39
*376 hold40
*377 hold41
*378 hold42
*379 hold43
*380 hold44
*381 hold45
*382 hold46
*383 hold47
*384 input1
*385 input2
*386 input3
*387 input4
*388 input5
*389 input6
*390 input7
*391 output8
*392 output9

*PORTS
clk I
col_addr[0] I
col_addr[1] I
cs I
data_in I
data_out O
data_out_bar O
oe_n I
row_addr[0] I
row_addr[1] I
we_n I

*D_NET *3 0.00405649
*CONN
*P clk I
*I *357:A I *D sg13g2_buf_16
*CAP
1 clk 0.0018503
2 *357:A 8.12863e-05
3 *3:16 0.000177946
4 *3:10 0.00194696
5 *357:A *291:A 0
6 *357:A *35:18 0
7 *357:A *95:31 0
8 *3:10 *64:25 0
9 *3:10 *81:10 0
10 *3:10 *81:16 0
11 *3:10 *124:10 0
12 *3:16 *329:D 0
13 *3:16 *35:18 0
14 *3:16 *95:31 0
*RES
1 clk *3:10 41.3519 
2 *3:10 *3:16 40.9682 
3 *3:16 *357:A 20.9682 
*END

*D_NET *4 0.000592882
*CONN
*P col_addr[0] I
*I *384:A I *D sg13g2_buf_1
*CAP
1 col_addr[0] 0.000296441
2 *384:A 0.000296441
3 *384:A *333:RESET_B 0
*RES
1 col_addr[0] *384:A 43.6977 
*END

*D_NET *5 0.00158743
*CONN
*P col_addr[1] I
*I *385:A I *D sg13g2_buf_1
*CAP
1 col_addr[1] 0.000793716
2 *385:A 0.000793716
3 *385:A *327:RESET_B 0
4 *385:A *366:A 0
5 *385:A *374:A 0
6 *385:A *62:58 0
7 *385:A *95:10 0
*RES
1 col_addr[1] *385:A 48.4872 
*END

*D_NET *6 0.00129093
*CONN
*P cs I
*I *386:A I *D sg13g2_buf_1
*CAP
1 cs 0.000645465
2 *386:A 0.000645465
3 *386:A *325:RESET_B 0
4 *386:A *390:A 0
5 *386:A *45:8 0
*RES
1 cs *386:A 46.7259 
*END

*D_NET *7 0.00082654
*CONN
*P data_in I
*I *387:A I *D sg13g2_buf_1
*CAP
1 data_in 0.00041327
2 *387:A 0.00041327
*RES
1 data_in *387:A 44.9955 
*END

*D_NET *8 0.000895923
*CONN
*P data_out O
*I *391:X O *D sg13g2_buf_1
*CAP
1 data_out 0.000447961
2 *391:X 0.000447961
3 data_out data_out_bar 0
4 data_out *391:A 0
5 data_out *62:58 0
*RES
1 *391:X data_out 44.1097 
*END

*D_NET *9 0.00118466
*CONN
*P data_out_bar O
*I *392:X O *D sg13g2_buf_1
*CAP
1 data_out_bar 0.000592331
2 *392:X 0.000592331
3 data_out_bar *290:D 0
4 data_out_bar *391:A 0
5 data_out_bar *392:A 0
6 data_out_bar *128:10 0
7 data_out data_out_bar 0
*RES
1 *392:X data_out_bar 45.5311 
*END

*D_NET *11 0.000934696
*CONN
*P row_addr[0] I
*I *388:A I *D sg13g2_buf_1
*CAP
1 row_addr[0] 0.000467348
2 *388:A 0.000467348
3 *388:A *389:A 0
4 *388:A *125:8 0
*RES
1 row_addr[0] *388:A 44.5629 
*END

*D_NET *12 0.000926832
*CONN
*P row_addr[1] I
*I *389:A I *D sg13g2_buf_1
*CAP
1 row_addr[1] 0.000463416
2 *389:A 0.000463416
3 *389:A *390:A 0
4 *388:A *389:A 0
*RES
1 row_addr[1] *389:A 43.6977 
*END

*D_NET *13 0.00145109
*CONN
*P we_n I
*I *390:A I *D sg13g2_buf_1
*CAP
1 we_n 0.000725543
2 *390:A 0.000725543
3 *390:A *126:8 0
4 *386:A *390:A 0
5 *389:A *390:A 0
*RES
1 we_n *390:A 46.6229 
*END

*D_NET *14 0.00120453
*CONN
*I *325:D I *D sg13g2_dfrbpq_1
*I *294:X O *D sg13g2_mux2_1
*CAP
1 *325:D 0
2 *294:X 0.000602265
3 *14:10 0.000602265
4 *14:10 *325:CLK 0
5 *14:10 *87:8 0
6 *14:10 *87:16 0
*RES
1 *294:X *14:10 46.6023 
2 *14:10 *325:D 40 
*END

*D_NET *15 0.00155479
*CONN
*I *327:D I *D sg13g2_dfrbpq_1
*I *296:X O *D sg13g2_mux2_1
*CAP
1 *327:D 0
2 *296:X 0.000777397
3 *15:10 0.000777397
4 *15:10 *82:12 0
*RES
1 *296:X *15:10 47.8074 
2 *15:10 *327:D 40 
*END

*D_NET *16 0.000876836
*CONN
*I *329:D I *D sg13g2_dfrbpq_1
*I *298:X O *D sg13g2_mux2_1
*CAP
1 *329:D 0.000285745
2 *298:X 0.000285745
3 *329:D *298:A1 0
4 *329:D *298:S 0
5 *329:D *329:RESET_B 0.000305345
6 *329:D *35:18 0
7 *3:16 *329:D 0
*RES
1 *298:X *329:D 43.1106 
*END

*D_NET *17 0.000962495
*CONN
*I *331:D I *D sg13g2_dfrbpq_1
*I *300:X O *D sg13g2_mux2_1
*CAP
1 *331:D 0
2 *300:X 0.000481247
3 *17:10 0.000481247
4 *17:10 *300:A1 0
5 *17:10 *125:12 0
*RES
1 *300:X *17:10 45.6753 
2 *17:10 *331:D 40 
*END

*D_NET *18 0.0011914
*CONN
*I *333:D I *D sg13g2_dfrbpq_1
*I *302:X O *D sg13g2_mux2_1
*CAP
1 *333:D 0.000148348
2 *302:X 0.000374931
3 *18:8 0.00052328
4 *333:D *333:RESET_B 0
5 *333:D *84:8 0.000144842
6 *18:8 *84:10 0
*RES
1 *302:X *18:8 44.3054 
2 *18:8 *333:D 41.6171 
*END

*D_NET *19 0.00264222
*CONN
*I *335:D I *D sg13g2_dfrbpq_1
*I *304:X O *D sg13g2_mux2_1
*CAP
1 *335:D 0.000407826
2 *304:X 0.000249919
3 *19:8 0.000657745
4 *335:D *331:CLK 0
5 *335:D *333:RESET_B 0
6 *335:D *335:RESET_B 0
7 *335:D *65:14 0
8 *19:8 *84:10 0.00098319
9 *19:8 *112:8 0.000343546
*RES
1 *304:X *19:8 44.5526 
2 *19:8 *335:D 44.429 
*END

*D_NET *20 0.000713184
*CONN
*I *337:D I *D sg13g2_dfrbpq_1
*I *306:X O *D sg13g2_mux2_1
*CAP
1 *337:D 0
2 *306:X 0.000356592
3 *20:10 0.000356592
4 *20:10 *306:A0 0
5 *20:10 *316:A0 0
6 *20:10 *347:RESET_B 0
7 *20:10 *88:58 0
8 *20:10 *110:8 0
*RES
1 *306:X *20:10 43.2057 
2 *20:10 *337:D 40 
*END

*D_NET *21 0.0011155
*CONN
*I *339:D I *D sg13g2_dfrbpq_1
*I *308:X O *D sg13g2_mux2_1
*CAP
1 *339:D 0.000186005
2 *308:X 0.000371747
3 *21:8 0.000557751
4 *339:D *339:RESET_B 0
5 *21:8 *63:8 0
*RES
1 *308:X *21:8 44.5526 
2 *21:8 *339:D 42.0497 
*END

*D_NET *22 0.000825022
*CONN
*I *341:D I *D sg13g2_dfrbpq_1
*I *310:X O *D sg13g2_mux2_1
*CAP
1 *341:D 0.000192679
2 *310:X 0.000219832
3 *22:8 0.000412511
4 *341:D *341:RESET_B 0
*RES
1 *310:X *22:8 42.575 
2 *22:8 *341:D 42.0497 
*END

*D_NET *23 0.00160452
*CONN
*I *343:D I *D sg13g2_dfrbpq_1
*I *312:X O *D sg13g2_mux2_1
*CAP
1 *343:D 0.000593286
2 *312:X 0.000137104
3 *23:8 0.00073039
4 *343:D *312:A0 0.00014374
5 *343:D *312:A1 0
6 *343:D *54:14 0
7 *23:8 *45:29 0
8 *23:8 *123:8 0
*RES
1 *312:X *23:8 41.339 
2 *23:8 *343:D 45.8607 
*END

*D_NET *24 0.00100166
*CONN
*I *345:D I *D sg13g2_dfrbpq_1
*I *314:X O *D sg13g2_mux2_1
*CAP
1 *345:D 0.00050083
2 *314:X 0.00050083
3 *345:D *287:A1 0
4 *345:D *314:S 0
5 *345:D *370:A 0
*RES
1 *314:X *345:D 44.7792 
*END

*D_NET *25 0.000561361
*CONN
*I *347:D I *D sg13g2_dfrbpq_1
*I *316:X O *D sg13g2_mux2_1
*CAP
1 *347:D 0.00024051
2 *316:X 0.00024051
3 *347:D *306:S 0
4 *347:D *316:A0 0
5 *347:D *367:A 0
6 *347:D *57:14 8.0342e-05
7 *347:D *88:58 0
*RES
1 *316:X *347:D 42.3999 
*END

*D_NET *26 0.00117637
*CONN
*I *349:D I *D sg13g2_dfrbpq_1
*I *318:X O *D sg13g2_mux2_1
*CAP
1 *349:D 0.000588183
2 *318:X 0.000588183
3 *349:D *287:A3 0
4 *349:D *287:S1 0
5 *349:D *320:A1 0
6 *349:D *351:D 0
7 *349:D *88:77 0
*RES
1 *318:X *349:D 45.5208 
*END

*D_NET *27 0.000656661
*CONN
*I *351:D I *D sg13g2_dfrbpq_1
*I *320:X O *D sg13g2_mux2_1
*CAP
1 *351:D 0.000239623
2 *320:X 0.000239623
3 *351:D *320:A1 0
4 *351:D *98:10 0.000177414
5 *349:D *351:D 0
*RES
1 *320:X *351:D 42.8119 
*END

*D_NET *28 0.00111982
*CONN
*I *353:D I *D sg13g2_dfrbpq_1
*I *322:X O *D sg13g2_mux2_1
*CAP
1 *353:D 0.00055991
2 *322:X 0.00055991
3 *353:D *353:RESET_B 0
4 *353:D *82:12 0
*RES
1 *322:X *353:D 45.6238 
*END

*D_NET *29 0.000843992
*CONN
*I *355:D I *D sg13g2_dfrbpq_1
*I *324:X O *D sg13g2_mux2_1
*CAP
1 *355:D 0.000421996
2 *324:X 0.000421996
3 *355:D *355:RESET_B 0
4 *355:D *75:16 0
5 *355:D *76:12 0
*RES
1 *324:X *355:D 44.7174 
*END

*D_NET *30 0.00488281
*CONN
*I *315:A I *D sg13g2_nor3_1
*I *323:A I *D sg13g2_nor3_1
*I *307:A I *D sg13g2_nor3_1
*I *301:A I *D sg13g2_nor3_1
*I *275:Y O *D sg13g2_nand2b_1
*CAP
1 *315:A 0
2 *323:A 0.000341825
3 *307:A 0.000282542
4 *301:A 0.000179524
5 *275:Y 0.000104265
6 *30:31 0.00116814
7 *30:14 0.00119609
8 *30:8 0.000577067
9 *301:A *305:A 7.99388e-05
10 *301:A *40:8 0.000107554
11 *301:A *40:12 7.49652e-05
12 *307:A *34:12 0
13 *307:A *54:14 7.99388e-05
14 *323:A *280:B 4.68848e-05
15 *323:A *280:A_N 0
16 *323:A *323:B 0
17 *323:A *37:10 0
18 *323:A *45:29 0
19 *323:A *89:50 0.000291502
20 *30:8 *275:B 0
21 *30:8 *43:51 0
22 *30:8 *57:14 0
23 *30:14 *32:41 0
24 *30:14 *41:10 0
25 *30:14 *43:34 0
26 *30:14 *89:85 0
27 *30:14 *126:42 0
28 *30:31 *279:B 0.000112099
29 *30:31 *305:A 0
30 *30:31 *311:A 0
31 *30:31 *312:S 0
32 *30:31 *41:8 0
33 *30:31 *45:29 0
34 *30:31 *54:14 0
35 *30:31 *125:14 0.000240478
*RES
1 *275:Y *30:8 21.133 
2 *30:8 *30:14 24.1612 
3 *30:14 *301:A 41.8746 
4 *30:14 *30:31 45.0779 
5 *30:31 *307:A 42.6883 
6 *30:31 *323:A 43.7183 
7 *30:8 *315:A 20 
*END

*D_NET *31 0.00482617
*CONN
*I *319:A I *D sg13g2_nor3_1
*I *297:A I *D sg13g2_nor3_1
*I *305:A I *D sg13g2_nor3_1
*I *311:A I *D sg13g2_nor3_1
*I *276:Y O *D sg13g2_nand2_1
*CAP
1 *319:A 0.000300446
2 *297:A 6.77109e-05
3 *305:A 0.000652643
4 *311:A 0.000118809
5 *276:Y 0
6 *31:38 0.000497367
7 *31:14 0.00130584
8 *31:6 0.0006636
9 *297:A *321:B 0.000112656
10 *297:A *32:35 0
11 *297:A *90:66 1.54008e-05
12 *305:A *279:A 7.99037e-05
13 *305:A *285:A 2.19969e-05
14 *305:A *301:B 4.77425e-05
15 *305:A *305:B 0
16 *305:A *309:A 0
17 *305:A *311:C 0
18 *305:A *34:6 9.60885e-05
19 *305:A *50:10 0
20 *305:A *126:23 0.000120551
21 *311:A *34:6 0.00014416
22 *319:A *321:B 0.000501312
23 *319:A *32:35 0
24 *31:14 *280:A_N 0
25 *31:14 *35:10 0
26 *31:14 *41:10 0
27 *31:14 *125:29 0
28 *31:38 *41:10 0
29 *301:A *305:A 7.99388e-05
30 *30:31 *305:A 0
31 *30:31 *311:A 0
*RES
1 *276:Y *31:6 40 
2 *31:6 *31:14 25.9637 
3 *31:14 *311:A 21.3184 
4 *31:14 *305:A 26.2418 
5 *31:6 *31:38 21.339 
6 *31:38 *297:A 20.7519 
7 *31:38 *319:A 23.3475 
*END

*D_NET *32 0.00724892
*CONN
*I *317:A I *D sg13g2_nor3_1
*I *303:A I *D sg13g2_nor3_1
*I *309:A I *D sg13g2_nor3_1
*I *295:A I *D sg13g2_nor3_1
*I *277:Y O *D sg13g2_nand2b_1
*CAP
1 *317:A 0.000269918
2 *303:A 0
3 *309:A 0.000261189
4 *295:A 0
5 *277:Y 0.000425549
6 *32:41 0.0010728
7 *32:35 0.00179314
8 *32:18 0.00113715
9 *309:A *303:B 1.54008e-05
10 *309:A *85:16 1.54008e-05
11 *309:A *85:33 0.000208101
12 *317:A *317:B 0
13 *317:A *321:B 0.0001118
14 *317:A *43:12 0
15 *317:A *86:46 0.000177042
16 *32:18 *277:B 4.65491e-05
17 *32:18 *280:B 0
18 *32:18 *295:B 0
19 *32:18 *323:C 0
20 *32:18 *324:A0 1.54201e-05
21 *32:18 *61:10 0
22 *32:18 *90:66 0
23 *32:18 *90:68 0
24 *32:18 *90:106 0
25 *32:35 *276:A 1.54008e-05
26 *32:35 *277:B 0
27 *32:35 *295:B 0
28 *32:35 *321:B 0
29 *32:35 *37:25 0.000111567
30 *32:35 *90:58 0.000727707
31 *32:41 *301:C 0.000144395
32 *32:41 *304:S 0
33 *32:41 *305:C 0.000317157
34 *32:41 *40:8 0.000127744
35 *32:41 *40:12 0.000180603
36 *32:41 *43:12 0
37 *32:41 *85:52 7.48842e-05
38 *32:41 *86:29 0
39 *32:41 *90:16 0
40 *32:41 *90:43 0
41 *32:41 *90:58 0
42 *297:A *32:35 0
43 *305:A *309:A 0
44 *319:A *32:35 0
45 *30:14 *32:41 0
*RES
1 *277:Y *32:18 24.8771 
2 *32:18 *295:A 20 
3 *32:18 *32:35 27.4984 
4 *32:35 *32:41 28.7344 
5 *32:41 *309:A 22.884 
6 *32:41 *303:A 20 
7 *32:35 *317:A 42.7398 
*END

*D_NET *33 0.00142518
*CONN
*I *280:B I *D sg13g2_nand2b_1
*I *278:X O *D sg13g2_mux4_1
*CAP
1 *280:B 0.000673872
2 *278:X 0.000673872
3 *280:B *278:S1 0
4 *280:B *358:A 0
5 *280:B *37:10 1.54556e-05
6 *280:B *61:10 0
7 *280:B *62:103 0
8 *280:B *89:61 1.51e-05
9 *323:A *280:B 4.68848e-05
10 *32:18 *280:B 0
*RES
1 *278:X *280:B 45.9946 
*END

*D_NET *34 0.00289351
*CONN
*I *311:B I *D sg13g2_nor3_1
*I *280:A_N I *D sg13g2_nand2b_1
*I *309:B I *D sg13g2_nor3_1
*I *293:C I *D sg13g2_nor4_1
*I *307:B I *D sg13g2_nor3_1
*I *279:X O *D sg13g2_or2_1
*CAP
1 *311:B 0
2 *280:A_N 0.00027386
3 *309:B 2.61261e-05
4 *293:C 0
5 *307:B 0
6 *279:X 0.000129643
7 *34:29 0.00010326
8 *34:23 0.000409851
9 *34:12 0.000414172
10 *34:8 0.000407568
11 *34:6 0.000129643
12 *309:B *85:16 3.23417e-05
13 *34:6 *311:C 0.000240249
14 *34:23 *54:14 0
15 *34:23 *85:16 0.000143922
16 *34:29 *293:D 0.000183436
17 *34:29 *85:18 0.000106333
18 *34:29 *85:83 5.28594e-05
19 *305:A *34:6 9.60885e-05
20 *307:A *34:12 0
21 *311:A *34:6 0.00014416
22 *323:A *280:A_N 0
23 *31:14 *280:A_N 0
*RES
1 *279:X *34:6 21.6171 
2 *34:6 *34:8 20 
3 *34:8 *34:12 21.339 
4 *34:12 *307:B 20 
5 *34:12 *34:23 2.7501 
6 *34:23 *34:29 41.5862 
7 *34:29 *293:C 20 
8 *34:23 *309:B 20.3193 
9 *34:8 *280:A_N 42.575 
10 *34:6 *311:B 20 
*END

*D_NET *35 0.00541557
*CONN
*I *291:A I *D sg13g2_nand4_1
*I *290:A I *D sg13g2_and4_1
*I *280:Y O *D sg13g2_nand2b_1
*CAP
1 *291:A 0.00011417
2 *290:A 0
3 *280:Y 0.000598385
4 *35:26 0.000182741
5 *35:18 0.00052571
6 *35:10 0.000827184
7 *291:A *291:B 0
8 *291:A *291:D 0
9 *291:A *128:10 4.77425e-05
10 *35:10 *37:59 0.00104521
11 *35:10 *89:42 0.00018387
12 *35:10 *89:50 0.000521515
13 *35:10 *90:66 0.00018387
14 *35:10 *114:8 0.00050766
15 *35:18 *291:B 8.01846e-05
16 *35:18 *329:RESET_B 0.000112569
17 *35:18 *37:59 4.77425e-05
18 *35:18 *38:12 0
19 *35:18 *128:10 1.54008e-05
20 *35:26 *290:B 8.00842e-05
21 *35:26 *128:10 0.000341534
22 *329:D *35:18 0
23 *357:A *291:A 0
24 *357:A *35:18 0
25 *3:16 *35:18 0
26 *31:14 *35:10 0
*RES
1 *280:Y *35:10 49.3215 
2 *35:10 *35:18 22.5029 
3 *35:18 *35:26 42.369 
4 *35:26 *290:A 20 
5 *35:18 *291:A 21.3184 
*END

*D_NET *36 0.00111709
*CONN
*I *283:B I *D sg13g2_nand2b_1
*I *281:X O *D sg13g2_mux4_1
*CAP
1 *283:B 0.000558546
2 *281:X 0.000558546
3 *283:B *291:B 0
4 *283:B *329:RESET_B 0
5 *283:B *329:CLK 0
6 *283:B *374:A 0
7 *283:B *89:23 0
*RES
1 *281:X *283:B 45.0573 
*END

*D_NET *37 0.00653891
*CONN
*I *297:B I *D sg13g2_nor3_1
*I *283:A_N I *D sg13g2_nand2b_1
*I *321:C I *D sg13g2_nor4_1
*I *295:B I *D sg13g2_nor3_1
*I *323:B I *D sg13g2_nor3_1
*I *282:Y O *D sg13g2_nand2b_1
*CAP
1 *297:B 3.92569e-05
2 *283:A_N 0
3 *321:C 4.65407e-05
4 *295:B 3.95146e-05
5 *323:B 0.000122443
6 *282:Y 0.000404071
7 *37:59 0.000507969
8 *37:51 0.000645371
9 *37:42 0.000210245
10 *37:29 0.000198788
11 *37:25 0.000288382
12 *37:10 0.000721182
13 *295:B *295:C 4.77425e-05
14 *297:B *321:B 6.4711e-05
15 *297:B *86:59 8.01118e-05
16 *321:C *321:B 4.77425e-05
17 *321:C *321:D 8.01116e-05
18 *323:B *323:C 0.000144929
19 *37:10 *276:A 0
20 *37:10 *62:8 0
21 *37:10 *62:78 0
22 *37:10 *62:89 0
23 *37:10 *89:61 0
24 *37:25 *277:B 0.00018082
25 *37:25 *323:C 0.000130403
26 *37:25 *89:50 0.000399414
27 *37:29 *47:8 7.62389e-05
28 *37:42 *47:8 0.000269079
29 *37:42 *86:70 0.000237686
30 *37:51 *321:B 0.000160485
31 *37:51 *321:D 4.77425e-05
32 *37:51 *86:59 0.000127951
33 *37:59 *89:23 0
34 *280:B *37:10 1.54556e-05
35 *323:A *323:B 0
36 *323:A *37:10 0
37 *32:18 *295:B 0
38 *32:35 *295:B 0
39 *32:35 *37:25 0.000111567
40 *35:10 *37:59 0.00104521
41 *35:18 *37:59 4.77425e-05
*RES
1 *282:Y *37:10 24.1103 
2 *37:10 *323:B 21.1845 
3 *37:10 *37:25 42.8016 
4 *37:25 *37:29 20.8446 
5 *37:29 *295:B 40.3193 
6 *37:29 *37:42 21.339 
7 *37:42 *321:C 20.5356 
8 *37:42 *37:51 1.1845 
9 *37:51 *37:59 45.5826 
10 *37:59 *283:A_N 20 
11 *37:51 *297:B 20.5356 
*END

*D_NET *38 0.00150257
*CONN
*I *290:B I *D sg13g2_and4_1
*I *291:B I *D sg13g2_nand4_1
*I *283:Y O *D sg13g2_nand2b_1
*CAP
1 *290:B 0.000118281
2 *291:B 0.000309668
3 *283:Y 0.00010397
4 *38:12 0.000543309
5 *38:8 0.00021933
6 *291:B *290:D 0
7 *291:B *291:D 0
8 *291:B *329:RESET_B 0
9 *291:B *128:10 4.77425e-05
10 *283:B *291:B 0
11 *291:A *291:B 0
12 *35:18 *291:B 8.01846e-05
13 *35:18 *38:12 0
14 *35:26 *290:B 8.00842e-05
*RES
1 *283:Y *38:8 40.8446 
2 *38:8 *38:12 21.1845 
3 *38:12 *291:B 23.4196 
4 *38:12 *290:B 21.6171 
*END

*D_NET *39 0.000383631
*CONN
*I *286:B I *D sg13g2_nand2b_1
*I *284:X O *D sg13g2_mux4_1
*CAP
1 *286:B 0.000191815
2 *284:X 0.000191815
3 *286:B *41:8 0
4 *286:B *52:12 0
5 *286:B *90:12 0
*RES
1 *284:X *286:B 41.751 
*END

*D_NET *40 0.0031995
*CONN
*I *286:A_N I *D sg13g2_nand2b_1
*I *305:B I *D sg13g2_nor3_1
*I *301:B I *D sg13g2_nor3_1
*I *303:B I *D sg13g2_nor3_1
*I *299:C I *D sg13g2_nor4_1
*I *285:Y O *D sg13g2_nand2_1
*CAP
1 *286:A_N 0.000176608
2 *305:B 0.000170306
3 *301:B 3.34444e-05
4 *303:B 4.50349e-05
5 *299:C 8.51255e-05
6 *285:Y 0
7 *40:14 0.000230477
8 *40:12 0.000228477
9 *40:8 0.000287612
10 *40:4 0.000199198
11 *286:A_N *305:C 0.000175709
12 *286:A_N *41:8 0
13 *299:C *85:41 0.000234237
14 *299:C *125:12 0.00033926
15 *305:B *305:C 0.000175709
16 *40:14 *125:12 0.000264297
17 *301:A *40:8 0.000107554
18 *301:A *40:12 7.49652e-05
19 *305:A *301:B 4.77425e-05
20 *305:A *305:B 0
21 *309:A *303:B 1.54008e-05
22 *32:41 *40:8 0.000127744
23 *32:41 *40:12 0.000180603
*RES
1 *285:Y *40:4 20 
2 *40:4 *40:8 20.5974 
3 *40:8 *40:12 1.3802 
4 *40:12 *40:14 1.339 
5 *40:14 *299:C 41.5862 
6 *40:14 *303:B 40.3193 
7 *40:12 *301:B 40.3193 
8 *40:8 *305:B 41.6171 
9 *40:4 *286:A_N 21.9673 
*END

*D_NET *41 0.00426672
*CONN
*I *290:C I *D sg13g2_and4_1
*I *291:C I *D sg13g2_nand4_1
*I *286:Y O *D sg13g2_nand2b_1
*CAP
1 *290:C 0.000102136
2 *291:C 0
3 *286:Y 0.000442255
4 *41:10 0.00104583
5 *41:8 0.00138595
6 *290:C *118:8 0
7 *290:C *128:10 0.000319437
8 *41:8 *45:29 0.000661674
9 *41:10 *289:A_N 0
10 *41:10 *43:12 0
11 *41:10 *48:8 0
12 *41:10 *114:8 0
13 *41:10 *118:8 0
14 *41:10 *125:29 0.000181192
15 *41:10 *128:10 0.000128248
16 *286:B *41:8 0
17 *286:A_N *41:8 0
18 *30:14 *41:10 0
19 *30:31 *41:8 0
20 *31:14 *41:10 0
21 *31:38 *41:10 0
*RES
1 *286:Y *41:8 44.429 
2 *41:8 *41:10 11.227 
3 *41:10 *291:C 40 
4 *41:10 *290:C 41.5862 
*END

*D_NET *42 0.00115365
*CONN
*I *289:B I *D sg13g2_nand2b_1
*I *287:X O *D sg13g2_mux4_1
*CAP
1 *289:B 0.000380888
2 *287:X 0.000380888
3 *289:B *287:S1 0.000264043
4 *289:B *289:A_N 4.77425e-05
5 *289:B *351:RESET_B 8.00842e-05
6 *289:B *98:10 0
7 *289:B *120:10 0
*RES
1 *287:X *289:B 44.1612 
*END

*D_NET *43 0.00517921
*CONN
*I *317:B I *D sg13g2_nor3_1
*I *313:C I *D sg13g2_nor4_1
*I *315:B I *D sg13g2_nor3_1
*I *289:A_N I *D sg13g2_nand2b_1
*I *319:B I *D sg13g2_nor3_1
*I *288:Y O *D sg13g2_nand2b_1
*CAP
1 *317:B 0.000172241
2 *313:C 3.01364e-05
3 *315:B 0
4 *289:A_N 0.000337273
5 *319:B 3.30638e-05
6 *288:Y 0.000140222
7 *43:51 0.000515074
8 *43:34 0.000557034
9 *43:12 0.000733132
10 *43:8 0.000747354
11 *289:A_N *287:S1 0
12 *289:A_N *59:8 0.000287672
13 *289:A_N *98:10 0
14 *289:A_N *118:8 0.000555408
15 *313:C *313:D 4.77699e-05
16 *313:C *321:B 4.77425e-05
17 *313:C *86:14 1.54008e-05
18 *317:B *313:A 0.000230773
19 *317:B *317:C 1.54008e-05
20 *317:B *59:8 0
21 *317:B *86:46 8.00842e-05
22 *319:B *321:B 4.77699e-05
23 *319:B *86:57 0
24 *43:8 *288:B 0
25 *43:8 *62:27 0
26 *43:8 *89:85 0
27 *43:34 *62:27 0
28 *43:51 *62:27 0
29 *43:51 *86:29 0.00046279
30 *43:51 *86:38 7.51285e-05
31 *43:51 *90:58 0
32 *43:51 *95:31 0
33 *289:B *289:A_N 4.77425e-05
34 *317:A *317:B 0
35 *317:A *43:12 0
36 *30:8 *43:51 0
37 *30:14 *43:34 0
38 *32:41 *43:12 0
39 *41:10 *289:A_N 0
40 *41:10 *43:12 0
*RES
1 *288:Y *43:8 21.5965 
2 *43:8 *43:12 23.811 
3 *43:12 *319:B 40.3193 
4 *43:12 *289:A_N 45.1191 
5 *43:8 *43:34 2.0497 
6 *43:34 *315:B 20 
7 *43:34 *43:51 23.9146 
8 *43:51 *313:C 40.3193 
9 *43:51 *317:B 42.1218 
*END

*D_NET *44 0.000592824
*CONN
*I *290:D I *D sg13g2_and4_1
*I *291:D I *D sg13g2_nand4_1
*I *289:Y O *D sg13g2_nand2b_1
*CAP
1 *290:D 0.000158567
2 *291:D 5.01684e-05
3 *289:Y 8.76764e-05
4 *44:6 0.000296412
5 *290:D *392:A 0
6 data_out_bar *290:D 0
7 *291:B *290:D 0
8 *291:B *291:D 0
9 *291:A *291:D 0
*RES
1 *289:Y *44:6 20.9682 
2 *44:6 *291:D 20.3508 
3 *44:6 *290:D 22.1218 
*END

*D_NET *45 0.00774973
*CONN
*I *363:A I *D sg13g2_buf_1
*I *362:A I *D sg13g2_buf_1
*I *292:Y O *D sg13g2_nand2b_1
*CAP
1 *363:A 0
2 *362:A 6.48555e-05
3 *292:Y 0.000427204
4 *45:35 0.000214393
5 *45:29 0.00130096
6 *45:10 0.00195381
7 *45:8 0.00122959
8 *362:A *278:A0 0
9 *362:A *54:14 0.000112099
10 *45:8 *292:B 0
11 *45:8 *292:A_N 0
12 *45:8 *325:RESET_B 0.000209669
13 *45:29 *278:S1 7.99004e-05
14 *45:29 *312:S 0
15 *45:29 *89:61 0.000500249
16 *45:29 *89:85 0.00048459
17 *45:29 *89:100 0.000258426
18 *45:29 *90:12 0.000177185
19 *45:35 *84:25 0
20 *45:35 *89:100 7.51285e-05
21 *45:35 *90:58 0
22 *323:A *45:29 0
23 *386:A *45:8 0
24 *23:8 *45:29 0
25 *30:31 *45:29 0
26 *41:8 *45:29 0.000661674
*RES
1 *292:Y *45:8 43.9964 
2 *45:8 *45:10 8.755 
3 *45:10 *362:A 40.7519 
4 *45:10 *45:29 31.9267 
5 *45:29 *45:35 42.575 
6 *45:35 *363:A 20 
*END

*D_NET *46 0.000931831
*CONN
*I *294:S I *D sg13g2_mux2_1
*I *293:Y O *D sg13g2_nor4_1
*CAP
1 *294:S 0.000465915
2 *293:Y 0.000465915
3 *294:S *294:A0 0
4 *294:S *308:S 0
*RES
1 *293:Y *294:S 44.5423 
*END

*D_NET *47 0.00219988
*CONN
*I *296:S I *D sg13g2_mux2_1
*I *295:Y O *D sg13g2_nor3_1
*CAP
1 *296:S 0.000434311
2 *295:Y 0.000267382
3 *47:8 0.000701693
4 *296:S *298:A1 0
5 *296:S *321:D 0
6 *296:S *322:S 0.000339353
7 *296:S *81:16 0
8 *296:S *121:10 0.000111828
9 *37:29 *47:8 7.62389e-05
10 *37:42 *47:8 0.000269079
*RES
1 *295:Y *47:8 43.0694 
2 *47:8 *296:S 44.7998 
*END

*D_NET *48 0.000414772
*CONN
*I *298:S I *D sg13g2_mux2_1
*I *297:Y O *D sg13g2_nor3_1
*CAP
1 *298:S 5.27791e-05
2 *297:Y 0.000154607
3 *48:8 0.000207386
4 *298:S *95:31 0
5 *329:D *298:S 0
6 *41:10 *48:8 0
*RES
1 *297:Y *48:8 41.5862 
2 *48:8 *298:S 40.5356 
*END

*D_NET *49 0.000246735
*CONN
*I *300:S I *D sg13g2_mux2_1
*I *299:Y O *D sg13g2_nor4_1
*CAP
1 *300:S 0.000123368
2 *299:Y 0.000123368
3 *300:S *364:A 0
4 *300:S *90:18 0
*RES
1 *299:Y *300:S 41.3802 
*END

*D_NET *50 0.00194698
*CONN
*I *302:S I *D sg13g2_mux2_1
*I *301:Y O *D sg13g2_nor3_1
*CAP
1 *302:S 0.000207972
2 *301:Y 0.000486552
3 *50:10 0.000694524
4 *302:S *300:A1 0
5 *302:S *364:A 0
6 *50:10 *301:C 0.000111421
7 *50:10 *304:S 0
8 *50:10 *373:A 0.000212969
9 *50:10 *70:8 0.000233544
10 *305:A *50:10 0
*RES
1 *301:Y *50:10 45.1191 
2 *50:10 *302:S 41.9673 
*END

*D_NET *51 0.00168355
*CONN
*I *304:S I *D sg13g2_mux2_1
*I *303:Y O *D sg13g2_nor3_1
*CAP
1 *304:S 0.000610383
2 *303:Y 0.000610383
3 *304:S *284:A0 0
4 *304:S *284:A1 0.000240472
5 *304:S *284:A2 0
6 *304:S *304:A0 1.53662e-05
7 *304:S *364:A 0
8 *304:S *373:A 8.005e-05
9 *304:S *52:12 0
10 *304:S *85:35 1.54008e-05
11 *304:S *85:52 0.000111498
12 *304:S *90:18 0
13 *32:41 *304:S 0
14 *50:10 *304:S 0
*RES
1 *303:Y *304:S 46.3242 
*END

*D_NET *52 0.00182604
*CONN
*I *306:S I *D sg13g2_mux2_1
*I *305:Y O *D sg13g2_nor3_1
*CAP
1 *306:S 0.000208379
2 *305:Y 0.000461506
3 *52:12 0.000669886
4 *306:S *372:A 0
5 *52:12 *284:A3 0.000304975
6 *52:12 *372:A 0.000181298
7 *52:12 *62:29 0
8 *52:12 *84:10 0
9 *52:12 *90:12 0
10 *286:B *52:12 0
11 *304:S *52:12 0
12 *347:D *306:S 0
*RES
1 *305:Y *52:12 45.0367 
2 *52:12 *306:S 41.7769 
*END

*D_NET *53 0.00198614
*CONN
*I *308:S I *D sg13g2_mux2_1
*I *307:Y O *D sg13g2_nor3_1
*CAP
1 *308:S 0.000720345
2 *307:Y 0.000161296
3 *53:8 0.000881641
4 *308:S *278:A0 0
5 *308:S *308:A0 0
6 *308:S *376:A 0
7 *308:S *74:10 0.000143739
8 *308:S *74:30 7.91215e-05
9 *308:S *85:16 0
10 *294:S *308:S 0
*RES
1 *307:Y *53:8 41.5862 
2 *53:8 *308:S 46.5096 
*END

*D_NET *54 0.00270093
*CONN
*I *310:S I *D sg13g2_mux2_1
*I *309:Y O *D sg13g2_nor3_1
*CAP
1 *310:S 0
2 *309:Y 0.00111822
3 *54:14 0.00111822
4 *54:14 *278:A0 0
5 *54:14 *278:A1 0
6 *54:14 *311:C 0.000272444
7 *54:14 *312:S 0
8 *54:14 *368:A 0
9 *54:14 *63:33 0
10 *54:14 *75:31 0
11 *54:14 *85:8 0
12 *307:A *54:14 7.99388e-05
13 *343:D *54:14 0
14 *362:A *54:14 0.000112099
15 *30:31 *54:14 0
16 *34:23 *54:14 0
*RES
1 *309:Y *54:14 31.5154 
2 *54:14 *310:S 20 
*END

*D_NET *55 0.000339041
*CONN
*I *312:S I *D sg13g2_mux2_1
*I *311:Y O *D sg13g2_nor3_1
*CAP
1 *312:S 0.000169521
2 *311:Y 0.000169521
3 *312:S *278:S1 0
4 *30:31 *312:S 0
5 *45:29 *312:S 0
6 *54:14 *312:S 0
*RES
1 *311:Y *312:S 41.4008 
*END

*D_NET *56 0.000768862
*CONN
*I *314:S I *D sg13g2_mux2_1
*I *313:Y O *D sg13g2_nor4_1
*CAP
1 *314:S 0.000384431
2 *313:Y 0.000384431
3 *314:S *313:A 0
4 *314:S *321:B 0
5 *314:S *62:27 0
6 *314:S *84:25 0
7 *314:S *84:33 0
8 *314:S *86:12 0
9 *345:D *314:S 0
*RES
1 *313:Y *314:S 43.334 
*END

*D_NET *57 0.00129532
*CONN
*I *316:S I *D sg13g2_mux2_1
*I *315:Y O *D sg13g2_nor3_1
*CAP
1 *316:S 0
2 *315:Y 0.000489919
3 *57:14 0.000489919
4 *57:14 *62:27 0
5 *57:14 *84:25 0
6 *57:14 *88:62 0.000235141
7 *57:14 *89:100 0
8 *57:14 *90:12 0
9 *347:D *57:14 8.0342e-05
10 *30:8 *57:14 0
*RES
1 *315:Y *57:14 45.356 
2 *57:14 *316:S 40 
*END

*D_NET *58 0.0002547
*CONN
*I *318:S I *D sg13g2_mux2_1
*I *317:Y O *D sg13g2_nor3_1
*CAP
1 *318:S 0.00012735
2 *317:Y 0.00012735
3 *318:S *320:A1 0
*RES
1 *317:Y *318:S 41.0106 
*END

*D_NET *59 0.000576766
*CONN
*I *320:S I *D sg13g2_mux2_1
*I *319:Y O *D sg13g2_nor3_1
*CAP
1 *320:S 5.61992e-05
2 *319:Y 8.83479e-05
3 *59:8 0.000144547
4 *320:S *320:A1 0
5 *320:S *95:31 0
6 *59:8 *287:S1 0
7 *289:A_N *59:8 0.000287672
8 *317:B *59:8 0
*RES
1 *319:Y *59:8 41.339 
2 *59:8 *320:S 40.5356 
*END

*D_NET *60 0.00164338
*CONN
*I *322:S I *D sg13g2_mux2_1
*I *321:Y O *D sg13g2_nor4_1
*CAP
1 *322:S 0.000596097
2 *321:Y 0.000596097
3 *322:S *355:RESET_B 0
4 *322:S *76:12 0
5 *322:S *81:16 0
6 *322:S *86:57 0
7 *322:S *90:68 0
8 *322:S *90:78 0
9 *322:S *121:10 0.000111828
10 *296:S *322:S 0.000339353
*RES
1 *321:Y *322:S 46.4581 
*END

*D_NET *61 0.00103746
*CONN
*I *324:S I *D sg13g2_mux2_1